
  ACD/LABS12112513102D

 41 49  0  0  0  0  0  0  0  0  2 V2000
   14.8844  -10.4953    0.0000 Rh   0  0  0  0  0  0  0  0  0  0  0  0
   13.5258   -6.3390    0.0000 C    0  0  0  0  0  0  0  0  0  0  0  0
   13.5258   -7.6690    0.0000 C    0  0  0  0  0  0  0  0  0  0  0  0
   14.7907   -8.0800    0.0000 C    0  0  0  0  0  0  0  0  0  0  0  0
   15.5724   -7.0040    0.0000 C    0  0  0  0  0  0  0  0  0  0  0  0
   14.7907   -5.9280    0.0000 C    0  3  0  0  0  0  0  0  0  0  0  0
   13.4704  -11.9915    0.0000 C    0  0  0  0  0  0  0  0  0  0  0  0
   13.4704  -13.3215    0.0000 C    0  0  0  0  0  0  0  0  0  0  0  0
   14.7353  -13.7325    0.0000 C    0  0  0  0  0  0  0  0  0  0  0  0
   15.5170  -12.6565    0.0000 C    0  0  0  0  0  0  0  0  0  0  0  0
   14.7353  -11.5805    0.0000 C    0  0  0  0  0  0  0  0  0  0  0  0
   15.2017   -4.6631    0.0000 C    0  0  0  0  0  0  0  0  0  0  0  0
   12.4498   -5.5573    0.0000 C    0  0  0  0  0  0  0  0  0  0  0  0
   12.2290   -7.9645    0.0000 C    0  0  0  0  0  0  0  0  0  0  0  0
   16.8713   -6.7179    0.0000 C    0  0  0  0  0  0  0  0  0  0  0  0
   16.0633   -8.4664    0.0000 C    0  0  0  0  0  0  0  0  0  0  0  0
   11.3247   -6.9893    0.0000 F    0  0  0  0  0  0  0  0  0  0  0  0
   11.8366   -9.2353    0.0000 F    0  0  0  0  0  0  0  0  0  0  0  0
   13.1333   -8.9398    0.0000 F    0  0  0  0  0  0  0  0  0  0  0  0
   11.2348   -6.0982    0.0000 F    0  0  0  0  0  0  0  0  0  0  0  0
   12.5888   -4.2346    0.0000 F    0  0  0  0  0  0  0  0  0  0  0  0
   11.3738   -4.7755    0.0000 F    0  0  0  0  0  0  0  0  0  0  0  0
   14.3117   -3.6748    0.0000 F    0  0  0  0  0  0  0  0  0  0  0  0
   16.5026   -4.3866    0.0000 F    0  0  0  0  0  0  0  0  0  0  0  0
   15.6127   -3.3982    0.0000 F    0  0  0  0  0  0  0  0  0  0  0  0
   17.7686   -7.6996    0.0000 F    0  0  0  0  0  0  0  0  0  0  0  0
   17.2729   -5.4499    0.0000 F    0  0  0  0  0  0  0  0  0  0  0  0
   18.1701   -6.4317    0.0000 F    0  0  0  0  0  0  0  0  0  0  0  0
   17.0343   -7.5575    0.0000 C    0  0  0  0  0  0  0  0  0  0  0  0
   16.3650   -9.7617    0.0000 F    0  0  0  0  0  0  0  0  0  0  0  0
   17.3360   -8.8528    0.0000 F    0  0  0  0  0  0  0  0  0  0  0  0
   16.0253  -11.2568    0.0000 C    0  0  0  0  0  0  0  0  0  0  0  0
   16.8275  -12.8839    0.0000 C    0  0  0  0  0  0  0  0  0  0  0  0
   15.1463  -14.9974    0.0000 C    0  0  0  0  0  0  0  0  0  0  0  0
   12.3944  -14.1033    0.0000 C    0  0  0  0  0  0  0  0  0  0  0  0
   12.2346  -11.5000    0.0000 C    0  0  0  0  0  0  0  0  0  0  0  0
   27.3532   -9.1653    0.0000 B    0  5  0  0  0  0  0  0  0  0  0  0
   27.3532  -10.4953    0.0000 F    0  0  0  0  0  0  0  0  0  0  0  0
   26.2014   -8.5003    0.0000 F    0  0  0  0  0  0  0  0  0  0  0  0
   28.5050   -8.5003    0.0000 F    0  0  0  0  0  0  0  0  0  0  0  0
   27.3532   -7.8353    0.0000 F    0  0  0  0  0  0  0  0  0  0  0  0
  2  3  1  0  0  0  0
  3  4  1  0  0  0  0
  4  5  1  0  0  0  0
  5  6  1  0  0  0  0
  6  2  1  0  0  0  0
  7  8  1  0  0  0  0
  8  9  1  0  0  0  0
  9 10  1  0  0  0  0
 10 11  1  0  0  0  0
 11  7  1  0  0  0  0
  4  1  1  0  0  0  0
  3  1  1  0  0  0  0
  5  1  1  0  0  0  0
  2  1  1  0  0  0  0
 11  1  1  0  0  0  0
 10  1  1  0  0  0  0
  8  1  1  0  0  0  0
  7  1  1  0  0  0  0
  6 12  1  0  0  0  0
  2 13  1  0  0  0  0
  3 14  1  0  0  0  0
  5 15  1  0  0  0  0
  4 16  1  0  0  0  0
  6  1  1  0  0  0  0
 14 17  1  0  0  0  0
 14 18  1  0  0  0  0
 14 19  1  0  0  0  0
 13 20  1  0  0  0  0
 13 21  1  0  0  0  0
 13 22  1  0  0  0  0
 12 23  1  0  0  0  0
 12 24  1  0  0  0  0
 12 25  1  0  0  0  0
 15 26  1  0  0  0  0
 15 27  1  0  0  0  0
 15 28  1  0  0  0  0
 16 29  1  0  0  0  0
 16 30  1  0  0  0  0
 16 31  1  0  0  0  0
 11 32  1  0  0  0  0
 10 33  1  0  0  0  0
  9 34  1  0  0  0  0
  8 35  1  0  0  0  0
  7 36  1  0  0  0  0
  9  1  1  0  0  0  0
 37 38  1  0  0  0  0
 37 39  1  0  0  0  0
 37 40  1  0  0  0  0
 37 41  1  0  0  0  0
M  END
> <NMREDATA_VERSION>
1.1

> <NMREDATA_LEVEL>
0

> <NMREDATA_SOLVENT>
CD2Cl2

> <NMREDATA_TEMPERATURE>
298

> <NMREDATA_FORMULA>
C21H18BF18Rh

> <NMREDATA_SMILES>
CC(C12C3([Rh]4567892(C1(C(F)(F)F)C5(C34C(F)(F)F)C(F)(F)F)C1(C8(C7(C6(C91C)C)C)C)C)C(F)(F)F)(F)F.F[B](F)(F)F

> <NMREDATA_ASSIGNMENT>
Rh1, -939.00, 1

> <NMREDATA_1D_103Rh>
-939.00, L=Rh1

$$$$
RhMan0925_0002.mol
  ChemDraw12112513152D

M  V30 COUNTS 57 75 0 0 0
  3.088201 -0.695281  0.000000 Rh   0  0  0  0  0  0  0
  2.245443  1.882845  0.000000 C    0  0  0  0  0  0  0
  2.245443  1.057845  0.000000 C    0  0  0  0  0  0  0
  3.030065  0.802906  0.000000 C    0  0  0  0  0  0  0
  3.514988  1.470345  0.000000 C    0  0  0  0  0  0  0
  3.030065  2.137785  0.000000 C    0  5  0  0  0  0  0
  2.211069 -1.623407  0.000000 C    0  0  0  0  0  0  0
  2.211069 -2.448407  0.000000 C    0  0  0  0  0  0  0
  2.995690 -2.703345  0.000000 C    0  0  0  0  0  0  0
  3.480613 -2.035907  0.000000 C    0  0  0  0  0  0  0
  2.995690 -1.368468  0.000000 C    0  0  0  0  0  0  0
  3.285004  2.922406  0.000000 C    0  0  0  0  0  0  0
  1.578004  2.367768  0.000000 C    0  0  0  0  0  0  0
  1.441064  0.874545  0.000000 C    0  0  0  0  0  0  0
  4.320663  1.647863  0.000000 C    0  0  0  0  0  0  0
  3.819483  0.563230  0.000000 C    0  0  0  0  0  0  0
  0.880132  1.479509  0.000000 F    0  0  0  0  0  0  0
  1.197616  0.086283  0.000000 F    0  0  0  0  0  0  0
  2.001996  0.269582  0.000000 F    0  0  0  0  0  0  0
  0.824329  2.032211  0.000000 F    0  0  0  0  0  0  0
  1.664241  3.188248  0.000000 F    0  0  0  0  0  0  0
  0.910565  2.852691  0.000000 F    0  0  0  0  0  0  0
  2.732972  3.535500  0.000000 F    0  0  0  0  0  0  0
  4.091976  3.093933  0.000000 F    0  0  0  0  0  0  0
  3.539943  3.707027  0.000000 F    0  0  0  0  0  0  0
  4.877236  1.038887  0.000000 F    0  0  0  0  0  0  0
  4.569765  2.434357  0.000000 F    0  0  0  0  0  0  0
  5.126338  1.825381  0.000000 F    0  0  0  0  0  0  0
  4.421757  1.127047  0.000000 C    0  0  0  0  0  0  0
  4.006626 -0.240264  0.000000 F    0  0  0  0  0  0  0
  4.608900  0.323553  0.000000 F    0  0  0  0  0  0  0
  3.795878 -1.167657  0.000000 C    0  0  0  0  0  0  0
  4.293470 -2.176931  0.000000 C    0  0  0  0  0  0  0
  3.250629 -3.487967  0.000000 C    0  0  0  0  0  0  0
  1.543630 -2.933329  0.000000 C    0  0  0  0  0  0  0
  1.444487 -1.318486  0.000000 C    0  0  0  0  0  0  0
 -3.479201 -0.914341  0.000000 Co   0  0  0  0  0  0  0
 -4.321959  1.663785  0.000000 C    0  0  0  0  0  0  0
 -4.321959  0.838785  0.000000 C    0  0  0  0  0  0  0
 -3.537337  0.583846  0.000000 C    0  0  0  0  0  0  0
 -3.052414  1.251285  0.000000 C    0  0  0  0  0  0  0
 -3.537337  1.918724  0.000000 C    0  3  0  0  0  0  0
 -4.356333 -1.842467  0.000000 C    0  0  0  0  0  0  0
 -4.356333 -2.667467  0.000000 C    0  0  0  0  0  0  0
 -3.571712 -2.922405  0.000000 C    0  0  0  0  0  0  0
 -3.086789 -2.254967  0.000000 C    0  0  0  0  0  0  0
 -3.571712 -1.587528  0.000000 C    0  0  0  0  0  0  0
 -3.282398  2.703346  0.000000 C    0  0  0  0  0  0  0
 -4.989398  2.148708  0.000000 C    0  0  0  0  0  0  0
 -5.126338  0.655485  0.000000 C    0  0  0  0  0  0  0
 -2.246739  1.428803  0.000000 C    0  0  0  0  0  0  0
 -2.747919  0.344170  0.000000 C    0  0  0  0  0  0  0
 -2.771524 -1.386718  0.000000 C    0  0  0  0  0  0  0
 -2.273932 -2.395991  0.000000 C    0  0  0  0  0  0  0
 -3.316772 -3.707027  0.000000 C    0  0  0  0  0  0  0
 -5.023772 -3.152389  0.000000 C    0  0  0  0  0  0  0
 -5.122915 -1.537546  0.000000 C    0  0  0  0  0  0  0
  2  3  1  0  0  0  0
  3  4  1  0  0  0  0
  4  5  1  0  0  0  0
  5  6  1  0  0  0  0
  6  2  1  0  0  0  0
  7  8  1  0  0  0  0
  8  9  1  0  0  0  0
  9 10  1  0  0  0  0
 10 11  1  0  0  0  0
 11  7  1  0  0  0  0
  4  1  1  0  0  0  0
  3  1  1  0  0  0  0
  5  1  1  0  0  0  0
  2  1  1  0  0  0  0
 11  1  1  0  0  0  0
 10  1  1  0  0  0  0
  8  1  1  0  0  0  0
  7  1  1  0  0  0  0
  6 12  1  0  0  0  0
  2 13  1  0  0  0  0
  3 14  1  0  0  0  0
  5 15  1  0  0  0  0
  4 16  1  0  0  0  0
  6  1  1  0  0  0  0
 14 17  1  0  0  0  0
 14 18  1  0  0  0  0
 14 19  1  0  0  0  0
 13 20  1  0  0  0  0
 13 21  1  0  0  0  0
 13 22  1  0  0  0  0
 12 23  1  0  0  0  0
 12 24  1  0  0  0  0
 12 25  1  0  0  0  0
 15 26  1  0  0  0  0
 15 27  1  0  0  0  0
 15 28  1  0  0  0  0
 16 29  1  0  0  0  0
 16 30  1  0  0  0  0
 16 31  1  0  0  0  0
 11 32  1  0  0  0  0
 10 33  1  0  0  0  0
  9 34  1  0  0  0  0
  8 35  1  0  0  0  0
  7 36  1  0  0  0  0
  9  1  1  0  0  0  0
 38 39  1  0  0  0  0
 39 40  1  0  0  0  0
 40 41  1  0  0  0  0
 41 42  1  0  0  0  0
 42 38  1  0  0  0  0
 43 44  1  0  0  0  0
 44 45  1  0  0  0  0
 45 46  1  0  0  0  0
 46 47  1  0  0  0  0
 47 43  1  0  0  0  0
 40 37  1  0  0  0  0
 39 37  1  0  0  0  0
 41 37  1  0  0  0  0
 38 37  1  0  0  0  0
 47 37  1  0  0  0  0
 46 37  1  0  0  0  0
 44 37  1  0  0  0  0
 43 37  1  0  0  0  0
 42 48  1  0  0  0  0
 38 49  1  0  0  0  0
 39 50  1  0  0  0  0
 41 51  1  0  0  0  0
 40 52  1  0  0  0  0
 42 37  1  0  0  0  0
 47 53  1  0  0  0  0
 46 54  1  0  0  0  0
 45 55  1  0  0  0  0
 44 56  1  0  0  0  0
 43 57  1  0  0  0  0
 45 37  1  0  0  0  0
M  END
> <NMREDATA_VERSION>
1.1

> <NMREDATA_LEVEL>
0

> <NMREDATA_SOLVENT>
THF-d8

> <NMREDATA_TEMPERATURE>
193

> <NMREDATA_FORMULA>
C41H48CoF14Rh

> <NMREDATA_SMILES>
CC(C12C3([Rh]4567892(C1(C(F)(F)F)C5(C34C(F)(F)F)C(F)(F)F)C1(C8(C7(C6(C91C)C)C)C)C)C(F)(F)F)(F)F.CC12C3(C)C4(C5(C1(C)[Co]16782345C2(C)C1(C)C7(C8(C62C)C)C)C)C

> <NMREDATA_ASSIGNMENT>
Rh1, 1474.00, 1

> <NMREDATA_1D_103Rh>
1474.00, L=Rh1

$$$$
RhMan0925_0013.mol
  ChemDraw12142511082D

M  V30 COUNTS 26 27 0 0 0
  0.230640  0.084455  0.000000 Rh   0  0  0  0  0  0  0
  1.311297  0.496955  0.000000 O    0  0  0  0  0  0  0
 -0.483830  0.496955  0.000000 O    0  0  0  0  0  0  0
  0.230640  0.909455  0.000000 O    0  0  0  0  0  0  0
  0.368141 -0.362420  0.000000 C    0  0  0  0  0  0  0
  0.368141 -1.187420  0.000000 O    0  0  0  0  0  0  0
  1.311297 -0.328045  0.000000 O    0  0  0  0  0  0  0
 -0.483830 -0.328045  0.000000 O    0  0  0  0  0  0  0
 -1.308830  0.496955  0.000000 C    0  0  0  0  0  0  0
 -1.308830 -0.328045  0.000000 C    0  0  0  0  0  0  0
 -1.831861  0.084455  0.000000 C    0  0  0  0  0  0  0
 -1.579207  1.276391  0.000000 C    0  0  0  0  0  0  0
 -1.579207 -1.107483  0.000000 C    0  0  0  0  0  0  0
 -2.656861  0.084455  0.000000 H    0  0  0  0  0  0  0
  0.643140  1.623925  0.000000 C    0  0  0  0  0  0  0
  1.743141  1.287580  0.000000 C    0  0  0  0  0  0  0
  1.482160  1.794789  0.000000 C    0  0  0  0  0  0  0
  0.951504 -1.770783  0.000000 C    0  0  0  0  0  0  0
  1.894660 -0.911409  0.000000 C    0  0  0  0  0  0  0
  1.894660 -1.736409  0.000000 C    0  0  0  0  0  0  0
  2.568078  1.277387  0.000000 C    0  0  0  0  0  0  0
  0.161072  2.293429  0.000000 C    0  0  0  0  0  0  0
  2.656861 -0.595694  0.000000 C    0  0  0  0  0  0  0
  0.649726 -2.538609  0.000000 C    0  0  0  0  0  0  0
  2.488552 -2.309049  0.000000 H    0  0  0  0  0  0  0
  1.839031  2.538609  0.000000 H    0  0  0  0  0  0  0
  1  2  1  6  0  0  0
  1  3  1  6  0  0  0
  1  4  1  0  0  0  0
  5  6  1  0  0  0  0
  1  7  1  1  0  0  0
  1  8  1  1  0  0  0
  3  9  4  0  0  0  0
  8 10  4  0  0  0  0
 10 11  4  0  0  0  0
  9 11  4  0  0  0  0
  9 12  1  0  0  0  0
 10 13  1  0  0  0  0
 11 14  1  0  0  0  0
  4 15  4  0  0  0  0
  2 16  4  0  0  0  0
 16 17  4  0  0  0  0
 17 15  4  0  0  0  0
  6 18  4  0  0  0  0
  7 19  4  0  0  0  0
 19 20  4  0  0  0  0
 18 20  4  0  0  0  0
 16 21  1  0  0  0  0
 15 22  1  0  0  0  0
 19 23  1  0  0  0  0
 18 24  1  0  0  0  0
 20 25  1  0  0  0  0
 17 26  1  0  0  0  0
M  END
> <NMREDATA_VERSION>
1.1

> <NMREDATA_LEVEL>
0

> <NMREDATA_SOLVENT>
CDCl3

> <NMREDATA_TEMPERATURE>
295

> <NMREDATA_FORMULA>
C16H27O6Rh

> <NMREDATA_SMILES>
COC(/C=C(\O[Rh]12(OC(C)C=C(O2)C)OC(C)C=C(O1)C)/C)C

> <NMREDATA_ASSIGNMENT>
Rh1, 8338.00, 1

> <NMREDATA_1D_103Rh>
8338.00, L=Rh1

$$$$
RhMan0925_0014.mol
  ChemDraw12142511152D

M  V30 COUNTS 70 78 0 0 0
  4.995483 -0.017188  0.000000 S    0  0  0  0  0  0  0
  5.709955  0.395312  0.000000 N    0  5  0  0  0  0  0
  6.424426 -0.017188  0.000000 S    0  0  0  0  0  0  0
  7.138897  0.395312  0.000000 O    0  0  0  0  0  0  0
  4.281013  0.395312  0.000000 O    0  0  0  0  0  0  0
  4.995483 -0.842188  0.000000 O    0  0  0  0  0  0  0
  6.424426 -0.842188  0.000000 O    0  0  0  0  0  0  0
  7.138897 -0.429688  0.000000 C    0  0  0  0  0  0  0
  4.281013 -0.429688  0.000000 C    0  0  0  0  0  0  0
  7.853367 -0.017188  0.000000 F    0  0  0  0  0  0  0
  7.138897 -1.254688  0.000000 F    0  0  0  0  0  0  0
  7.853367 -0.842188  0.000000 F    0  0  0  0  0  0  0
  3.566542 -0.017188  0.000000 F    0  0  0  0  0  0  0
  4.281013 -1.254688  0.000000 F    0  0  0  0  0  0  0
  3.566542 -0.842188  0.000000 F    0  0  0  0  0  0  0
 -2.635770 -0.085938  0.000000 Rh   0  0  0  0  0  0  0
 -3.350241 -0.498438  0.000000 P    0  0  0  0  0  0  0
 -3.350241  0.326562  0.000000 P    0  0  0  0  0  0  0
 -1.921298 -0.498438  0.000000 P    0  0  0  0  0  0  0
 -1.921298  0.326562  0.000000 P    0  0  0  0  0  0  0
 -4.388895 -0.120313  0.000000 C    0  0  0  0  0  0  0
 -0.573269 -0.017188  0.000000 C    0  0  0  0  0  0  0
 -5.687741  2.045313  0.000000 C    0  0  0  0  0  0  0
 -5.687741  1.220313  0.000000 C    0  0  0  0  0  0  0
 -4.973271  0.807813  0.000000 C    0  0  0  0  0  0  0
 -4.258800  1.220313  0.000000 C    0  0  0  0  0  0  0
 -4.258800  2.045313  0.000000 C    0  0  0  0  0  0  0
 -4.973271  2.457813  0.000000 C    0  3  0  0  0  0  0
 -3.797115  2.835939  0.000000 C    0  0  0  0  0  0  0
 -3.797115  2.010939  0.000000 C    0  0  0  0  0  0  0
 -3.082645  1.598439  0.000000 C    0  0  0  0  0  0  0
 -2.368174  2.010939  0.000000 C    0  0  0  0  0  0  0
 -2.368174  2.835939  0.000000 C    0  0  0  0  0  0  0
 -3.082645  3.248439  0.000000 C    0  0  0  0  0  0  0
 -1.768990  2.423438  0.000000 C    0  0  0  0  0  0  0
 -1.768990  1.598438  0.000000 C    0  0  0  0  0  0  0
 -1.054519  1.185938  0.000000 C    0  0  0  0  0  0  0
 -0.340048  1.598438  0.000000 C    0  0  0  0  0  0  0
 -0.340048  2.423438  0.000000 C    0  0  0  0  0  0  0
 -1.054519  2.835938  0.000000 C    0  0  0  0  0  0  0
 -0.393989  1.357813  0.000000 C    0  0  0  0  0  0  0
 -0.393989  0.532813  0.000000 C    0  0  0  0  0  0  0
  0.320482  0.120313  0.000000 C    0  0  0  0  0  0  0
  1.034952  0.532813  0.000000 C    0  0  0  0  0  0  0
  1.034952  1.357813  0.000000 C    0  0  0  0  0  0  0
  0.320482  1.770313  0.000000 C    0  0  0  0  0  0  0
 -1.665865 -1.529689  0.000000 C    0  0  0  0  0  0  0
 -1.665865 -2.354689  0.000000 C    0  0  0  0  0  0  0
 -0.951393 -2.767189  0.000000 C    0  0  0  0  0  0  0
 -0.236923 -2.354689  0.000000 C    0  0  0  0  0  0  0
 -0.236923 -1.529689  0.000000 C    0  0  0  0  0  0  0
 -0.951393 -1.117189  0.000000 C    0  0  0  0  0  0  0
 -3.350241 -2.010939  0.000000 C    0  0  0  0  0  0  0
 -3.350241 -2.835939  0.000000 C    0  0  0  0  0  0  0
 -2.635770 -3.248439  0.000000 C    0  0  0  0  0  0  0
 -1.921298 -2.835939  0.000000 C    0  0  0  0  0  0  0
 -1.921298 -2.010939  0.000000 C    0  0  0  0  0  0  0
 -2.635770 -1.598439  0.000000 C    0  0  0  0  0  0  0
 -5.481492 -2.010939  0.000000 C    0  0  0  0  0  0  0
 -5.481492 -2.835939  0.000000 C    0  0  0  0  0  0  0
 -4.767020 -3.248439  0.000000 C    0  0  0  0  0  0  0
 -4.052549 -2.835939  0.000000 C    0  0  0  0  0  0  0
 -4.052549 -2.010939  0.000000 C    0  0  0  0  0  0  0
 -4.767020 -1.598439  0.000000 C    0  0  0  0  0  0  0
 -7.853367 -1.254689  0.000000 C    0  0  0  0  0  0  0
 -7.853367 -2.079689  0.000000 C    0  0  0  0  0  0  0
 -7.138896 -2.492189  0.000000 C    0  0  0  0  0  0  0
 -6.424426 -2.079689  0.000000 C    0  0  0  0  0  0  0
 -6.424426 -1.254689  0.000000 C    0  0  0  0  0  0  0
 -7.138896 -0.842189  0.000000 C    0  0  0  0  0  0  0
  1  2  1  0  0  0  0
  2  3  1  0  0  0  0
  3  4  2  0  0  0  0
  1  5  2  0  0  0  0
  1  6  2  0  0  0  0
  3  7  2  0  0  0  0
  3  8  1  0  0  0  0
  1  9  1  0  0  0  0
  8 10  1  0  0  0  0
  8 11  1  0  0  0  0
  8 12  1  0  0  0  0
  9 13  1  0  0  0  0
  9 14  1  0  0  0  0
  9 15  1  0  0  0  0
 16 17  1  0  0  0  0
 16 18  1  0  0  0  0
 16 19  1  0  0  0  0
 16 20  1  0  0  0  0
 17 21  1  0  0  0  0
 18 21  1  0  0  0  0
 19 22  1  0  0  0  0
 20 22  1  0  0  0  0
 23 24  2  0  0  0  0
 24 25  1  0  0  0  0
 25 26  2  0  0  0  0
 26 27  1  0  0  0  0
 27 28  2  0  0  0  0
 28 23  1  0  0  0  0
 29 30  2  0  0  0  0
 30 31  1  0  0  0  0
 31 32  2  0  0  0  0
 32 33  1  0  0  0  0
 33 34  2  0  0  0  0
 34 29  1  0  0  0  0
 35 36  2  0  0  0  0
 36 37  1  0  0  0  0
 37 38  2  0  0  0  0
 38 39  1  0  0  0  0
 39 40  2  0  0  0  0
 40 35  1  0  0  0  0
 41 42  2  0  0  0  0
 42 43  1  0  0  0  0
 43 44  2  0  0  0  0
 44 45  1  0  0  0  0
 45 46  2  0  0  0  0
 46 41  1  0  0  0  0
 47 48  2  0  0  0  0
 48 49  1  0  0  0  0
 49 50  2  0  0  0  0
 50 51  1  0  0  0  0
 51 52  2  0  0  0  0
 52 47  1  0  0  0  0
 53 54  2  0  0  0  0
 54 55  1  0  0  0  0
 55 56  2  0  0  0  0
 56 57  1  0  0  0  0
 57 58  2  0  0  0  0
 58 53  1  0  0  0  0
 59 60  2  0  0  0  0
 60 61  1  0  0  0  0
 61 62  2  0  0  0  0
 62 63  1  0  0  0  0
 63 64  2  0  0  0  0
 64 59  1  0  0  0  0
 65 66  2  0  0  0  0
 66 67  1  0  0  0  0
 67 68  2  0  0  0  0
 68 69  1  0  0  0  0
 69 70  2  0  0  0  0
 70 65  1  0  0  0  0
 69 17  1  0  0  0  0
 64 17  1  0  0  0  0
 58 19  1  0  0  0  0
 52 19  1  0  0  0  0
 37 20  1  0  0  0  0
 42 20  1  0  0  0  0
 31 18  1  0  0  0  0
 26 18  1  0  0  0  0
M  END
> <NMREDATA_VERSION>
1.1

> <NMREDATA_LEVEL>
0

> <NMREDATA_SOLVENT>
THF-d8

> <NMREDATA_TEMPERATURE>
298

> <NMREDATA_FORMULA>
C52H49F6NO4P4RhS2

> <NMREDATA_SMILES>
c1ccc(cc1)P1(CP([Rh]21P(CP2(c1ccccc1)c1ccccc1)(c1ccccc1)c1ccccc1)(c1ccccc1)c1ccccc1)c1ccccc1.FC(S(=O)(=O)NS(=O)(=O)C(F)(F)F)(F)F

> <NMREDATA_ASSIGNMENT>
Rh16, -283.00, 16

> <NMREDATA_1D_103Rh>
-283.00, L=Rh16

$$$$
RhMan0925_0015.mol
  ChemDraw12142511162D

M  V30 COUNTS 72 80 0 0 0
  4.995483 -0.017188  0.000000 S    0  0  0  0  0  0  0
  5.709955  0.395312  0.000000 N    0  5  0  0  0  0  0
  6.424426 -0.017188  0.000000 S    0  0  0  0  0  0  0
  7.138897  0.395312  0.000000 O    0  0  0  0  0  0  0
  4.281013  0.395312  0.000000 O    0  0  0  0  0  0  0
  4.995483 -0.842188  0.000000 O    0  0  0  0  0  0  0
  6.424426 -0.842188  0.000000 O    0  0  0  0  0  0  0
  7.138897 -0.429688  0.000000 C    0  0  0  0  0  0  0
  4.281013 -0.429688  0.000000 C    0  0  0  0  0  0  0
  7.853367 -0.017188  0.000000 F    0  0  0  0  0  0  0
  7.138897 -1.254688  0.000000 F    0  0  0  0  0  0  0
  7.853367 -0.842188  0.000000 F    0  0  0  0  0  0  0
  3.566542 -0.017188  0.000000 F    0  0  0  0  0  0  0
  4.281013 -1.254688  0.000000 F    0  0  0  0  0  0  0
  3.566542 -0.842188  0.000000 F    0  0  0  0  0  0  0
 -2.635770 -0.085938  0.000000 Rh   0  0  0  0  0  0  0
 -3.350241 -0.498438  0.000000 P    0  0  0  0  0  0  0
 -3.350241  0.326562  0.000000 P    0  0  0  0  0  0  0
 -1.921298 -0.498438  0.000000 P    0  0  0  0  0  0  0
 -1.921298  0.326562  0.000000 P    0  0  0  0  0  0  0
 -5.687741  2.045313  0.000000 C    0  0  0  0  0  0  0
 -5.687741  1.220313  0.000000 C    0  0  0  0  0  0  0
 -4.973271  0.807813  0.000000 C    0  0  0  0  0  0  0
 -4.258800  1.220313  0.000000 C    0  0  0  0  0  0  0
 -4.258800  2.045313  0.000000 C    0  0  0  0  0  0  0
 -4.973271  2.457813  0.000000 C    0  3  0  0  0  0  0
 -3.797115  2.835939  0.000000 C    0  0  0  0  0  0  0
 -3.797115  2.010939  0.000000 C    0  0  0  0  0  0  0
 -3.082645  1.598439  0.000000 C    0  0  0  0  0  0  0
 -2.368174  2.010939  0.000000 C    0  0  0  0  0  0  0
 -2.368174  2.835939  0.000000 C    0  0  0  0  0  0  0
 -3.082645  3.248439  0.000000 C    0  0  0  0  0  0  0
 -1.768990  2.423438  0.000000 C    0  0  0  0  0  0  0
 -1.768990  1.598438  0.000000 C    0  0  0  0  0  0  0
 -1.054519  1.185938  0.000000 C    0  0  0  0  0  0  0
 -0.340048  1.598438  0.000000 C    0  0  0  0  0  0  0
 -0.340048  2.423438  0.000000 C    0  0  0  0  0  0  0
 -1.054519  2.835938  0.000000 C    0  0  0  0  0  0  0
 -0.393989  1.357813  0.000000 C    0  0  0  0  0  0  0
 -0.393989  0.532813  0.000000 C    0  0  0  0  0  0  0
  0.320482  0.120313  0.000000 C    0  0  0  0  0  0  0
  1.034952  0.532813  0.000000 C    0  0  0  0  0  0  0
  1.034952  1.357813  0.000000 C    0  0  0  0  0  0  0
  0.320482  1.770313  0.000000 C    0  0  0  0  0  0  0
 -1.665865 -1.529689  0.000000 C    0  0  0  0  0  0  0
 -1.665865 -2.354689  0.000000 C    0  0  0  0  0  0  0
 -0.951393 -2.767189  0.000000 C    0  0  0  0  0  0  0
 -0.236923 -2.354689  0.000000 C    0  0  0  0  0  0  0
 -0.236923 -1.529689  0.000000 C    0  0  0  0  0  0  0
 -0.951393 -1.117189  0.000000 C    0  0  0  0  0  0  0
 -3.350241 -2.010939  0.000000 C    0  0  0  0  0  0  0
 -3.350241 -2.835939  0.000000 C    0  0  0  0  0  0  0
 -2.635770 -3.248439  0.000000 C    0  0  0  0  0  0  0
 -1.921298 -2.835939  0.000000 C    0  0  0  0  0  0  0
 -1.921298 -2.010939  0.000000 C    0  0  0  0  0  0  0
 -2.635770 -1.598439  0.000000 C    0  0  0  0  0  0  0
 -5.481492 -2.010939  0.000000 C    0  0  0  0  0  0  0
 -5.481492 -2.835939  0.000000 C    0  0  0  0  0  0  0
 -4.767020 -3.248439  0.000000 C    0  0  0  0  0  0  0
 -4.052549 -2.835939  0.000000 C    0  0  0  0  0  0  0
 -4.052549 -2.010939  0.000000 C    0  0  0  0  0  0  0
 -4.767020 -1.598439  0.000000 C    0  0  0  0  0  0  0
 -7.853367 -1.254689  0.000000 C    0  0  0  0  0  0  0
 -7.853367 -2.079689  0.000000 C    0  0  0  0  0  0  0
 -7.138896 -2.492189  0.000000 C    0  0  0  0  0  0  0
 -6.424426 -2.079689  0.000000 C    0  0  0  0  0  0  0
 -6.424426 -1.254689  0.000000 C    0  0  0  0  0  0  0
 -7.138896 -0.842189  0.000000 C    0  0  0  0  0  0  0
 -0.470144 -0.498438  0.000000 C    0  0  0  0  0  0  0
 -0.538893  0.120312  0.000000 C    0  0  0  0  0  0  0
 -4.663895 -0.326562  0.000000 C    0  0  0  0  0  0  0
 -4.595145  0.395312  0.000000 C    0  0  0  0  0  0  0
  1  2  1  0  0  0  0
  2  3  1  0  0  0  0
  3  4  2  0  0  0  0
  1  5  2  0  0  0  0
  1  6  2  0  0  0  0
  3  7  2  0  0  0  0
  3  8  1  0  0  0  0
  1  9  1  0  0  0  0
  8 10  1  0  0  0  0
  8 11  1  0  0  0  0
  8 12  1  0  0  0  0
  9 13  1  0  0  0  0
  9 14  1  0  0  0  0
  9 15  1  0  0  0  0
 16 17  1  0  0  0  0
 16 18  1  0  0  0  0
 16 19  1  0  0  0  0
 16 20  1  0  0  0  0
 21 22  2  0  0  0  0
 22 23  1  0  0  0  0
 23 24  2  0  0  0  0
 24 25  1  0  0  0  0
 25 26  2  0  0  0  0
 26 21  1  0  0  0  0
 27 28  2  0  0  0  0
 28 29  1  0  0  0  0
 29 30  2  0  0  0  0
 30 31  1  0  0  0  0
 31 32  2  0  0  0  0
 32 27  1  0  0  0  0
 33 34  2  0  0  0  0
 34 35  1  0  0  0  0
 35 36  2  0  0  0  0
 36 37  1  0  0  0  0
 37 38  2  0  0  0  0
 38 33  1  0  0  0  0
 39 40  2  0  0  0  0
 40 41  1  0  0  0  0
 41 42  2  0  0  0  0
 42 43  1  0  0  0  0
 43 44  2  0  0  0  0
 44 39  1  0  0  0  0
 45 46  2  0  0  0  0
 46 47  1  0  0  0  0
 47 48  2  0  0  0  0
 48 49  1  0  0  0  0
 49 50  2  0  0  0  0
 50 45  1  0  0  0  0
 51 52  2  0  0  0  0
 52 53  1  0  0  0  0
 53 54  2  0  0  0  0
 54 55  1  0  0  0  0
 55 56  2  0  0  0  0
 56 51  1  0  0  0  0
 57 58  2  0  0  0  0
 58 59  1  0  0  0  0
 59 60  2  0  0  0  0
 60 61  1  0  0  0  0
 61 62  2  0  0  0  0
 62 57  1  0  0  0  0
 63 64  2  0  0  0  0
 64 65  1  0  0  0  0
 65 66  2  0  0  0  0
 66 67  1  0  0  0  0
 67 68  2  0  0  0  0
 68 63  1  0  0  0  0
 67 17  1  0  0  0  0
 62 17  1  0  0  0  0
 56 19  1  0  0  0  0
 50 19  1  0  0  0  0
 35 20  1  0  0  0  0
 40 20  1  0  0  0  0
 29 18  1  0  0  0  0
 24 18  1  0  0  0  0
 19 69  1  0  0  0  0
 69 70  1  0  0  0  0
 70 20  1  0  0  0  0
 17 71  1  0  0  0  0
 18 72  1  0  0  0  0
 71 72  1  0  0  0  0
M  END
> <NMREDATA_VERSION>
1.1

> <NMREDATA_LEVEL>
0

> <NMREDATA_SOLVENT>
THF-d8

> <NMREDATA_TEMPERATURE>
298

> <NMREDATA_FORMULA>
C54H53F6NO4P4RhS2

> <NMREDATA_SMILES>
c1ccc(cc1)P1(CCP([Rh]21P(CCP2(c1ccccc1)c1ccccc1)(c1ccccc1)c1ccccc1)(c1ccccc1)c1ccccc1)c1ccccc1.FC(S(=O)(=O)NS(=O)(=O)C(F)(F)F)(F)F

> <NMREDATA_ASSIGNMENT>
Rh16, -1084.00, 16

> <NMREDATA_1D_103Rh>
-1084.00, L=Rh16

$$$$
RhMan0925_0016.mol
  ChemDraw12142511172D

M  V30 COUNTS 74 82 0 0 0
  4.995483 -0.017188  0.000000 S    0  0  0  0  0  0  0
  5.709955  0.395312  0.000000 N    0  5  0  0  0  0  0
  6.424426 -0.017188  0.000000 S    0  0  0  0  0  0  0
  7.138897  0.395312  0.000000 O    0  0  0  0  0  0  0
  4.281013  0.395312  0.000000 O    0  0  0  0  0  0  0
  4.995483 -0.842188  0.000000 O    0  0  0  0  0  0  0
  6.424426 -0.842188  0.000000 O    0  0  0  0  0  0  0
  7.138897 -0.429688  0.000000 C    0  0  0  0  0  0  0
  4.281013 -0.429688  0.000000 C    0  0  0  0  0  0  0
  7.853367 -0.017188  0.000000 F    0  0  0  0  0  0  0
  7.138897 -1.254688  0.000000 F    0  0  0  0  0  0  0
  7.853367 -0.842188  0.000000 F    0  0  0  0  0  0  0
  3.566542 -0.017188  0.000000 F    0  0  0  0  0  0  0
  4.281013 -1.254688  0.000000 F    0  0  0  0  0  0  0
  3.566542 -0.842188  0.000000 F    0  0  0  0  0  0  0
 -2.635770 -0.085938  0.000000 Rh   0  0  0  0  0  0  0
 -3.350241 -0.498438  0.000000 P    0  0  0  0  0  0  0
 -3.350241  0.326562  0.000000 P    0  0  0  0  0  0  0
 -1.921298 -0.498438  0.000000 P    0  0  0  0  0  0  0
 -1.921298  0.326562  0.000000 P    0  0  0  0  0  0  0
 -5.687741  2.045313  0.000000 C    0  0  0  0  0  0  0
 -5.687741  1.220313  0.000000 C    0  0  0  0  0  0  0
 -4.973271  0.807813  0.000000 C    0  0  0  0  0  0  0
 -4.258800  1.220313  0.000000 C    0  0  0  0  0  0  0
 -4.258800  2.045313  0.000000 C    0  0  0  0  0  0  0
 -4.973271  2.457813  0.000000 C    0  3  0  0  0  0  0
 -3.797115  2.835939  0.000000 C    0  0  0  0  0  0  0
 -3.797115  2.010939  0.000000 C    0  0  0  0  0  0  0
 -3.082645  1.598439  0.000000 C    0  0  0  0  0  0  0
 -2.368174  2.010939  0.000000 C    0  0  0  0  0  0  0
 -2.368174  2.835939  0.000000 C    0  0  0  0  0  0  0
 -3.082645  3.248439  0.000000 C    0  0  0  0  0  0  0
 -1.768990  2.423438  0.000000 C    0  0  0  0  0  0  0
 -1.768990  1.598438  0.000000 C    0  0  0  0  0  0  0
 -1.054519  1.185938  0.000000 C    0  0  0  0  0  0  0
 -0.340048  1.598438  0.000000 C    0  0  0  0  0  0  0
 -0.340048  2.423438  0.000000 C    0  0  0  0  0  0  0
 -1.054519  2.835938  0.000000 C    0  0  0  0  0  0  0
 -0.393989  1.357813  0.000000 C    0  0  0  0  0  0  0
 -0.393989  0.532813  0.000000 C    0  0  0  0  0  0  0
  0.320482  0.120313  0.000000 C    0  0  0  0  0  0  0
  1.034952  0.532813  0.000000 C    0  0  0  0  0  0  0
  1.034952  1.357813  0.000000 C    0  0  0  0  0  0  0
  0.320482  1.770313  0.000000 C    0  0  0  0  0  0  0
 -1.665865 -1.529689  0.000000 C    0  0  0  0  0  0  0
 -1.665865 -2.354689  0.000000 C    0  0  0  0  0  0  0
 -0.951393 -2.767189  0.000000 C    0  0  0  0  0  0  0
 -0.236923 -2.354689  0.000000 C    0  0  0  0  0  0  0
 -0.236923 -1.529689  0.000000 C    0  0  0  0  0  0  0
 -0.951393 -1.117189  0.000000 C    0  0  0  0  0  0  0
 -3.350241 -2.010939  0.000000 C    0  0  0  0  0  0  0
 -3.350241 -2.835939  0.000000 C    0  0  0  0  0  0  0
 -2.635770 -3.248439  0.000000 C    0  0  0  0  0  0  0
 -1.921298 -2.835939  0.000000 C    0  0  0  0  0  0  0
 -1.921298 -2.010939  0.000000 C    0  0  0  0  0  0  0
 -2.635770 -1.598439  0.000000 C    0  0  0  0  0  0  0
 -5.481492 -2.010939  0.000000 C    0  0  0  0  0  0  0
 -5.481492 -2.835939  0.000000 C    0  0  0  0  0  0  0
 -4.767020 -3.248439  0.000000 C    0  0  0  0  0  0  0
 -4.052549 -2.835939  0.000000 C    0  0  0  0  0  0  0
 -4.052549 -2.010939  0.000000 C    0  0  0  0  0  0  0
 -4.767020 -1.598439  0.000000 C    0  0  0  0  0  0  0
 -7.853367 -1.254689  0.000000 C    0  0  0  0  0  0  0
 -7.853367 -2.079689  0.000000 C    0  0  0  0  0  0  0
 -7.138896 -2.492189  0.000000 C    0  0  0  0  0  0  0
 -6.424426 -2.079689  0.000000 C    0  0  0  0  0  0  0
 -6.424426 -1.254689  0.000000 C    0  0  0  0  0  0  0
 -7.138896 -0.842189  0.000000 C    0  0  0  0  0  0  0
 -0.470144 -0.635938  0.000000 C    0  0  0  0  0  0  0
 -0.538893  0.120312  0.000000 C    0  0  0  0  0  0  0
 -4.663895 -0.326562  0.000000 C    0  0  0  0  0  0  0
 -4.595145  0.395312  0.000000 C    0  0  0  0  0  0  0
 -5.378366  0.085938  0.000000 C    0  0  0  0  0  0  0
  0.182981 -0.326562  0.000000 C    0  0  0  0  0  0  0
  1  2  1  0  0  0  0
  2  3  1  0  0  0  0
  3  4  2  0  0  0  0
  1  5  2  0  0  0  0
  1  6  2  0  0  0  0
  3  7  2  0  0  0  0
  3  8  1  0  0  0  0
  1  9  1  0  0  0  0
  8 10  1  0  0  0  0
  8 11  1  0  0  0  0
  8 12  1  0  0  0  0
  9 13  1  0  0  0  0
  9 14  1  0  0  0  0
  9 15  1  0  0  0  0
 16 17  1  0  0  0  0
 16 18  1  0  0  0  0
 16 19  1  0  0  0  0
 16 20  1  0  0  0  0
 21 22  2  0  0  0  0
 22 23  1  0  0  0  0
 23 24  2  0  0  0  0
 24 25  1  0  0  0  0
 25 26  2  0  0  0  0
 26 21  1  0  0  0  0
 27 28  2  0  0  0  0
 28 29  1  0  0  0  0
 29 30  2  0  0  0  0
 30 31  1  0  0  0  0
 31 32  2  0  0  0  0
 32 27  1  0  0  0  0
 33 34  2  0  0  0  0
 34 35  1  0  0  0  0
 35 36  2  0  0  0  0
 36 37  1  0  0  0  0
 37 38  2  0  0  0  0
 38 33  1  0  0  0  0
 39 40  2  0  0  0  0
 40 41  1  0  0  0  0
 41 42  2  0  0  0  0
 42 43  1  0  0  0  0
 43 44  2  0  0  0  0
 44 39  1  0  0  0  0
 45 46  2  0  0  0  0
 46 47  1  0  0  0  0
 47 48  2  0  0  0  0
 48 49  1  0  0  0  0
 49 50  2  0  0  0  0
 50 45  1  0  0  0  0
 51 52  2  0  0  0  0
 52 53  1  0  0  0  0
 53 54  2  0  0  0  0
 54 55  1  0  0  0  0
 55 56  2  0  0  0  0
 56 51  1  0  0  0  0
 57 58  2  0  0  0  0
 58 59  1  0  0  0  0
 59 60  2  0  0  0  0
 60 61  1  0  0  0  0
 61 62  2  0  0  0  0
 62 57  1  0  0  0  0
 63 64  2  0  0  0  0
 64 65  1  0  0  0  0
 65 66  2  0  0  0  0
 66 67  1  0  0  0  0
 67 68  2  0  0  0  0
 68 63  1  0  0  0  0
 67 17  1  0  0  0  0
 62 17  1  0  0  0  0
 56 19  1  0  0  0  0
 50 19  1  0  0  0  0
 35 20  1  0  0  0  0
 40 20  1  0  0  0  0
 29 18  1  0  0  0  0
 24 18  1  0  0  0  0
 19 69  1  0  0  0  0
 70 20  1  0  0  0  0
 17 71  1  0  0  0  0
 18 72  1  0  0  0  0
 71 73  1  0  0  0  0
 72 73  1  0  0  0  0
 69 74  1  0  0  0  0
 74 70  1  0  0  0  0
M  END
> <NMREDATA_VERSION>
1.1

> <NMREDATA_LEVEL>
0

> <NMREDATA_SOLVENT>
THF-d8

> <NMREDATA_TEMPERATURE>
298

> <NMREDATA_FORMULA>
C56H57F6NO4P4RhS2

> <NMREDATA_SMILES>
C1CP(c2ccccc2)(c2ccccc2)[Rh]2(P(C1)(c1ccccc1)c1ccccc1)P(CCCP2(c1ccccc1)c1ccccc1)(c1ccccc1)c1ccccc1.FC(S(=O)(=O)NS(=O)(=O)C(F)(F)F)(F)F

> <NMREDATA_ASSIGNMENT>
Rh16, -486.00, 16

> <NMREDATA_1D_103Rh>
-486.00, L=Rh16

$$$$
RhMan0925_0017.mol
  ChemDraw12142511192D

M  V30 COUNTS 76 84 0 0 0
  4.995483 -0.017188  0.000000 S    0  0  0  0  0  0  0
  5.709955  0.395312  0.000000 N    0  5  0  0  0  0  0
  6.424426 -0.017188  0.000000 S    0  0  0  0  0  0  0
  7.138897  0.395312  0.000000 O    0  0  0  0  0  0  0
  4.281013  0.395312  0.000000 O    0  0  0  0  0  0  0
  4.995483 -0.842188  0.000000 O    0  0  0  0  0  0  0
  6.424426 -0.842188  0.000000 O    0  0  0  0  0  0  0
  7.138897 -0.429688  0.000000 C    0  0  0  0  0  0  0
  4.281013 -0.429688  0.000000 C    0  0  0  0  0  0  0
  7.853367 -0.017188  0.000000 F    0  0  0  0  0  0  0
  7.138897 -1.254688  0.000000 F    0  0  0  0  0  0  0
  7.853367 -0.842188  0.000000 F    0  0  0  0  0  0  0
  3.566542 -0.017188  0.000000 F    0  0  0  0  0  0  0
  4.281013 -1.254688  0.000000 F    0  0  0  0  0  0  0
  3.566542 -0.842188  0.000000 F    0  0  0  0  0  0  0
 -2.635770 -0.085938  0.000000 Rh   0  0  0  0  0  0  0
 -3.350241 -0.498438  0.000000 P    0  0  0  0  0  0  0
 -3.350241  0.326562  0.000000 P    0  0  0  0  0  0  0
 -1.921298 -0.498438  0.000000 P    0  0  0  0  0  0  0
 -1.921298  0.326562  0.000000 P    0  0  0  0  0  0  0
 -5.687741  2.045313  0.000000 C    0  0  0  0  0  0  0
 -5.687741  1.220313  0.000000 C    0  0  0  0  0  0  0
 -4.973271  0.807813  0.000000 C    0  0  0  0  0  0  0
 -4.258800  1.220313  0.000000 C    0  0  0  0  0  0  0
 -4.258800  2.045313  0.000000 C    0  0  0  0  0  0  0
 -4.973271  2.457813  0.000000 C    0  3  0  0  0  0  0
 -3.797115  2.835939  0.000000 C    0  0  0  0  0  0  0
 -3.797115  2.010939  0.000000 C    0  0  0  0  0  0  0
 -3.082645  1.598439  0.000000 C    0  0  0  0  0  0  0
 -2.368174  2.010939  0.000000 C    0  0  0  0  0  0  0
 -2.368174  2.835939  0.000000 C    0  0  0  0  0  0  0
 -3.082645  3.248439  0.000000 C    0  0  0  0  0  0  0
 -1.768990  2.423438  0.000000 C    0  0  0  0  0  0  0
 -1.768990  1.598438  0.000000 C    0  0  0  0  0  0  0
 -1.054519  1.185938  0.000000 C    0  0  0  0  0  0  0
 -0.340048  1.598438  0.000000 C    0  0  0  0  0  0  0
 -0.340048  2.423438  0.000000 C    0  0  0  0  0  0  0
 -1.054519  2.835938  0.000000 C    0  0  0  0  0  0  0
 -0.393989  1.357813  0.000000 C    0  0  0  0  0  0  0
 -0.393989  0.532813  0.000000 C    0  0  0  0  0  0  0
  0.320482  0.120313  0.000000 C    0  0  0  0  0  0  0
  1.034952  0.532813  0.000000 C    0  0  0  0  0  0  0
  1.034952  1.357813  0.000000 C    0  0  0  0  0  0  0
  0.320482  1.770313  0.000000 C    0  0  0  0  0  0  0
 -1.665865 -1.529689  0.000000 C    0  0  0  0  0  0  0
 -1.665865 -2.354689  0.000000 C    0  0  0  0  0  0  0
 -0.951393 -2.767189  0.000000 C    0  0  0  0  0  0  0
 -0.236923 -2.354689  0.000000 C    0  0  0  0  0  0  0
 -0.236923 -1.529689  0.000000 C    0  0  0  0  0  0  0
 -0.951393 -1.117189  0.000000 C    0  0  0  0  0  0  0
 -3.350241 -2.010939  0.000000 C    0  0  0  0  0  0  0
 -3.350241 -2.835939  0.000000 C    0  0  0  0  0  0  0
 -2.635770 -3.248439  0.000000 C    0  0  0  0  0  0  0
 -1.921298 -2.835939  0.000000 C    0  0  0  0  0  0  0
 -1.921298 -2.010939  0.000000 C    0  0  0  0  0  0  0
 -2.635770 -1.598439  0.000000 C    0  0  0  0  0  0  0
 -5.481492 -2.010939  0.000000 C    0  0  0  0  0  0  0
 -5.481492 -2.835939  0.000000 C    0  0  0  0  0  0  0
 -4.767020 -3.248439  0.000000 C    0  0  0  0  0  0  0
 -4.052549 -2.835939  0.000000 C    0  0  0  0  0  0  0
 -4.052549 -2.010939  0.000000 C    0  0  0  0  0  0  0
 -4.767020 -1.598439  0.000000 C    0  0  0  0  0  0  0
 -7.853367 -1.254689  0.000000 C    0  0  0  0  0  0  0
 -7.853367 -2.079689  0.000000 C    0  0  0  0  0  0  0
 -7.138896 -2.492189  0.000000 C    0  0  0  0  0  0  0
 -6.424426 -2.079689  0.000000 C    0  0  0  0  0  0  0
 -6.424426 -1.254689  0.000000 C    0  0  0  0  0  0  0
 -7.138896 -0.842189  0.000000 C    0  0  0  0  0  0  0
  0.698607 -0.910938  0.000000 C    0  0  0  0  0  0  0
 -0.642019 -0.326562  0.000000 C    0  0  0  0  0  0  0
 -5.660771 -0.464063  0.000000 C    0  0  0  0  0  0  0
 -4.595145  0.395312  0.000000 C    0  0  0  0  0  0  0
 -5.867021  0.257813  0.000000 C    0  0  0  0  0  0  0
  1.413078 -0.498438  0.000000 C    0  0  0  0  0  0  0
 -5.007645  0.085938  0.000000 C    0  0  0  0  0  0  0
  1.111107 -0.154687  0.000000 C    0  0  0  0  0  0  0
  1  2  1  0  0  0  0
  2  3  1  0  0  0  0
  3  4  2  0  0  0  0
  1  5  2  0  0  0  0
  1  6  2  0  0  0  0
  3  7  2  0  0  0  0
  3  8  1  0  0  0  0
  1  9  1  0  0  0  0
  8 10  1  0  0  0  0
  8 11  1  0  0  0  0
  8 12  1  0  0  0  0
  9 13  1  0  0  0  0
  9 14  1  0  0  0  0
  9 15  1  0  0  0  0
 16 17  1  0  0  0  0
 16 18  1  0  0  0  0
 16 19  1  0  0  0  0
 16 20  1  0  0  0  0
 21 22  2  0  0  0  0
 22 23  1  0  0  0  0
 23 24  2  0  0  0  0
 24 25  1  0  0  0  0
 25 26  2  0  0  0  0
 26 21  1  0  0  0  0
 27 28  2  0  0  0  0
 28 29  1  0  0  0  0
 29 30  2  0  0  0  0
 30 31  1  0  0  0  0
 31 32  2  0  0  0  0
 32 27  1  0  0  0  0
 33 34  2  0  0  0  0
 34 35  1  0  0  0  0
 35 36  2  0  0  0  0
 36 37  1  0  0  0  0
 37 38  2  0  0  0  0
 38 33  1  0  0  0  0
 39 40  2  0  0  0  0
 40 41  1  0  0  0  0
 41 42  2  0  0  0  0
 42 43  1  0  0  0  0
 43 44  2  0  0  0  0
 44 39  1  0  0  0  0
 45 46  2  0  0  0  0
 46 47  1  0  0  0  0
 47 48  2  0  0  0  0
 48 49  1  0  0  0  0
 49 50  2  0  0  0  0
 50 45  1  0  0  0  0
 51 52  2  0  0  0  0
 52 53  1  0  0  0  0
 53 54  2  0  0  0  0
 54 55  1  0  0  0  0
 55 56  2  0  0  0  0
 56 51  1  0  0  0  0
 57 58  2  0  0  0  0
 58 59  1  0  0  0  0
 59 60  2  0  0  0  0
 60 61  1  0  0  0  0
 61 62  2  0  0  0  0
 62 57  1  0  0  0  0
 63 64  2  0  0  0  0
 64 65  1  0  0  0  0
 65 66  2  0  0  0  0
 66 67  1  0  0  0  0
 67 68  2  0  0  0  0
 68 63  1  0  0  0  0
 67 17  1  0  0  0  0
 62 17  1  0  0  0  0
 56 19  1  0  0  0  0
 50 19  1  0  0  0  0
 35 20  1  0  0  0  0
 40 20  1  0  0  0  0
 29 18  1  0  0  0  0
 24 18  1  0  0  0  0
 19 69  1  0  0  0  0
 70 20  1  0  0  0  0
 17 71  1  0  0  0  0
 18 72  1  0  0  0  0
 71 73  1  0  0  0  0
 69 74  1  0  0  0  0
 73 75  1  0  0  0  0
 75 72  1  0  0  0  0
 74 76  1  0  0  0  0
 76 70  1  0  0  0  0
M  END
> <NMREDATA_VERSION>
1.1

> <NMREDATA_LEVEL>
0

> <NMREDATA_SOLVENT>
THF-d8

> <NMREDATA_TEMPERATURE>
333

> <NMREDATA_FORMULA>
C58H61F6NO4P4RhS2

> <NMREDATA_SMILES>
C1CCP([Rh]2(P(C1)(c1ccccc1)c1ccccc1)P(CCCCP2(c1ccccc1)c1ccccc1)(c1ccccc1)c1ccccc1)(c1ccccc1)c1ccccc1.FC(S(=O)(=O)NS(=O)(=O)C(F)(F)F)(F)F

> <NMREDATA_ASSIGNMENT>
Rh16, -298.00, 16

> <NMREDATA_1D_103Rh>
-298.00, L=Rh16

$$$$

  ACD/LABS12142511242D

104112  0  0  0  0  0  0  0  0  2 V2000
   29.0750  -11.3247    0.0000 S    0  0  0  0  0  0  0  0  0  0  0  0
   30.2268  -10.6597    0.0000 N    0  5  0  0  0  0  0  0  0  0  0  0
   31.3787  -11.3247    0.0000 S    0  0  0  0  0  0  0  0  0  0  0  0
   32.5305  -10.6597    0.0000 O    0  0  0  0  0  0  0  0  0  0  0  0
   27.9232  -10.6597    0.0000 O    0  0  0  0  0  0  0  0  0  0  0  0
   29.0750  -12.6547    0.0000 O    0  0  0  0  0  0  0  0  0  0  0  0
   31.3787  -12.6547    0.0000 O    0  0  0  0  0  0  0  0  0  0  0  0
   32.5305  -11.9897    0.0000 C    0  0  0  0  0  0  0  0  0  0  0  0
   27.9232  -11.9897    0.0000 C    0  0  0  0  0  0  0  0  0  0  0  0
   33.6823  -11.3247    0.0000 F    0  0  0  0  0  0  0  0  0  0  0  0
   32.5305  -13.3197    0.0000 F    0  0  0  0  0  0  0  0  0  0  0  0
   33.6823  -12.6547    0.0000 F    0  0  0  0  0  0  0  0  0  0  0  0
   26.7714  -11.3247    0.0000 F    0  0  0  0  0  0  0  0  0  0  0  0
   27.9232  -13.3197    0.0000 F    0  0  0  0  0  0  0  0  0  0  0  0
   26.7714  -12.6547    0.0000 F    0  0  0  0  0  0  0  0  0  0  0  0
   16.7725  -11.4355    0.0000 Rh   0  0  0  0  0  0  0  0  0  0  0  0
   15.6207  -12.1005    0.0000 P    0  0  0  0  0  5  0  0  0  0  0  0
   15.6207  -10.7705    0.0000 P    0  0  0  0  0  5  0  0  0  0  0  0
   17.9243  -12.1005    0.0000 P    0  0  0  0  0  5  0  0  0  0  0  0
   17.9243  -10.7705    0.0000 P    0  0  0  0  0  5  0  0  0  0  0  0
   11.8524   -7.9997    0.0000 C    0  0  0  0  0  0  0  0  0  0  0  0
   11.8524   -9.3297    0.0000 C    0  0  0  0  0  0  0  0  0  0  0  0
   13.0042   -9.9947    0.0000 C    0  3  0  0  0  0  0  0  0  0  0  0
   14.1560   -9.3297    0.0000 C    0  0  0  0  0  0  0  0  0  0  0  0
   14.1560   -7.9997    0.0000 C    0  0  0  0  0  0  0  0  0  0  0  0
   13.0042   -7.3347    0.0000 C    0  0  0  0  0  0  0  0  0  0  0  0
   14.9003   -6.7251    0.0000 C    0  0  0  0  0  0  0  0  0  0  0  0
   14.9003   -8.0551    0.0000 C    0  0  0  0  0  0  0  0  0  0  0  0
   16.0521   -8.7201    0.0000 C    0  0  0  0  0  0  0  0  0  0  0  0
   17.2039   -8.0551    0.0000 C    0  0  0  0  0  0  0  0  0  0  0  0
   17.2039   -6.7251    0.0000 C    0  0  0  0  0  0  0  0  0  0  0  0
   16.0521   -6.0601    0.0000 C    0  0  0  0  0  0  0  0  0  0  0  0
   18.1699   -7.3901    0.0000 C    0  0  0  0  0  0  0  0  0  0  0  0
   18.1699   -8.7201    0.0000 C    0  0  0  0  0  0  0  0  0  0  0  0
   19.3217   -9.3851    0.0000 C    0  0  0  0  0  0  0  0  0  0  0  0
   20.4735   -8.7201    0.0000 C    0  0  0  0  0  0  0  0  0  0  0  0
   20.4735   -7.3901    0.0000 C    0  0  0  0  0  0  0  0  0  0  0  0
   19.3217   -6.7251    0.0000 C    0  0  0  0  0  0  0  0  0  0  0  0
   20.3865   -9.1080    0.0000 C    0  0  0  0  0  0  0  0  0  0  0  0
   20.3865  -10.4380    0.0000 C    0  0  0  0  0  0  0  0  0  0  0  0
   21.5384  -11.1030    0.0000 C    0  0  0  0  0  0  0  0  0  0  0  0
   22.6902  -10.4380    0.0000 C    0  0  0  0  0  0  0  0  0  0  0  0
   22.6902   -9.1080    0.0000 C    0  0  0  0  0  0  0  0  0  0  0  0
   21.5384   -8.4430    0.0000 C    0  0  0  0  0  0  0  0  0  0  0  0
   18.3361  -13.7630    0.0000 C    0  0  0  0  0  0  0  0  0  0  0  0
   18.3361  -15.0930    0.0000 C    0  0  0  0  0  0  0  0  0  0  0  0
   19.4879  -15.7580    0.0000 C    0  0  0  0  0  0  0  0  0  0  0  0
   20.6398  -15.0930    0.0000 C    0  0  0  0  0  0  0  0  0  0  0  0
   20.6398  -13.7630    0.0000 C    0  0  0  0  0  0  0  0  0  0  0  0
   19.4879  -13.0980    0.0000 C    0  0  0  0  0  0  0  0  0  0  0  0
   15.6207  -14.5389    0.0000 C    0  0  0  0  0  0  0  0  0  0  0  0
   15.6207  -15.8689    0.0000 C    0  0  0  0  0  0  0  0  0  0  0  0
   16.7725  -16.5339    0.0000 C    0  0  0  0  0  0  0  0  0  0  0  0
   17.9243  -15.8689    0.0000 C    0  0  0  0  0  0  0  0  0  0  0  0
   17.9243  -14.5389    0.0000 C    0  0  0  0  0  0  0  0  0  0  0  0
   16.7725  -13.8739    0.0000 C    0  0  0  0  0  0  0  0  0  0  0  0
   12.1849  -14.5389    0.0000 C    0  0  0  0  0  0  0  0  0  0  0  0
   12.1849  -15.8689    0.0000 C    0  0  0  0  0  0  0  0  0  0  0  0
   13.3367  -16.5339    0.0000 C    0  0  0  0  0  0  0  0  0  0  0  0
   14.4885  -15.8689    0.0000 C    0  0  0  0  0  0  0  0  0  0  0  0
   14.4885  -14.5389    0.0000 C    0  0  0  0  0  0  0  0  0  0  0  0
   13.3367  -13.8739    0.0000 C    0  0  0  0  0  0  0  0  0  0  0  0
    8.3611  -13.3197    0.0000 C    0  0  0  0  0  0  0  0  0  0  0  0
    8.3611  -14.6497    0.0000 C    0  0  0  0  0  0  0  0  0  0  0  0
    9.5129  -15.3147    0.0000 C    0  0  0  0  0  0  0  0  0  0  0  0
   10.6647  -14.6497    0.0000 C    0  0  0  0  0  0  0  0  0  0  0  0
   10.6647  -13.3197    0.0000 C    0  0  0  0  0  0  0  0  0  0  0  0
    9.5129  -12.6547    0.0000 C    0  0  0  0  0  0  0  0  0  0  0  0
   19.2543  -12.1005    0.0000 C    0  0  0  0  0  0  0  0  0  0  0  0
   19.2090  -11.1148    0.0000 C    0  0  0  0  0  0  0  0  0  0  0  0
   14.2907  -12.1005    0.0000 C    0  0  0  0  0  0  0  0  0  0  0  0
   13.6138  -10.6597    0.0000 C    0  0  0  0  0  0  0  0  0  0  0  0
   10.7006   -7.3347    0.0000 C    0  0  0  0  0  0  0  0  0  0  0  0
   16.0521   -4.7301    0.0000 C    0  0  0  0  0  0  0  0  0  0  0  0
   19.3217   -5.3951    0.0000 C    0  0  0  0  0  0  0  0  0  0  0  0
   23.8420   -8.4430    0.0000 C    0  0  0  0  0  0  0  0  0  0  0  0
   19.4879  -17.0880    0.0000 C    0  0  0  0  0  0  0  0  0  0  0  0
   16.7725  -17.8639    0.0000 C    0  0  0  0  0  0  0  0  0  0  0  0
   13.3367  -17.8639    0.0000 C    0  0  0  0  0  0  0  0  0  0  0  0
    7.2093  -15.3147    0.0000 C    0  0  0  0  0  0  0  0  0  0  0  0
    6.0575  -14.6497    0.0000 F    0  0  0  0  0  0  0  0  0  0  0  0
    7.2093  -16.6447    0.0000 F    0  0  0  0  0  0  0  0  0  0  0  0
    7.2093  -13.9847    0.0000 F    0  0  0  0  0  0  0  0  0  0  0  0
   14.4885  -18.5289    0.0000 F    0  0  0  0  0  0  0  0  0  0  0  0
   12.1849  -18.5289    0.0000 F    0  0  0  0  0  0  0  0  0  0  0  0
   13.3367  -19.1939    0.0000 F    0  0  0  0  0  0  0  0  0  0  0  0
   17.9243  -18.5289    0.0000 F    0  0  0  0  0  0  0  0  0  0  0  0
   15.6207  -18.5289    0.0000 F    0  0  0  0  0  0  0  0  0  0  0  0
   16.7725  -19.1939    0.0000 F    0  0  0  0  0  0  0  0  0  0  0  0
   20.6398  -17.7530    0.0000 F    0  0  0  0  0  0  0  0  0  0  0  0
   18.3361  -17.7530    0.0000 F    0  0  0  0  0  0  0  0  0  0  0  0
   20.6398  -16.4230    0.0000 F    0  0  0  0  0  0  0  0  0  0  0  0
   24.9938   -9.1080    0.0000 F    0  0  0  0  0  0  0  0  0  0  0  0
   23.8420   -7.1130    0.0000 F    0  0  0  0  0  0  0  0  0  0  0  0
   24.9938   -7.7780    0.0000 F    0  0  0  0  0  0  0  0  0  0  0  0
   18.1699   -4.7301    0.0000 F    0  0  0  0  0  0  0  0  0  0  0  0
   20.4735   -4.7301    0.0000 F    0  0  0  0  0  0  0  0  0  0  0  0
   19.3217   -4.0651    0.0000 F    0  0  0  0  0  0  0  0  0  0  0  0
   14.9003   -4.0651    0.0000 F    0  0  0  0  0  0  0  0  0  0  0  0
   17.2039   -4.0651    0.0000 F    0  0  0  0  0  0  0  0  0  0  0  0
   16.0521   -3.4001    0.0000 F    0  0  0  0  0  0  0  0  0  0  0  0
    9.5487   -7.9997    0.0000 F    0  0  0  0  0  0  0  0  0  0  0  0
   10.7006   -6.0047    0.0000 F    0  0  0  0  0  0  0  0  0  0  0  0
   11.8524   -6.6697    0.0000 F    0  0  0  0  0  0  0  0  0  0  0  0
  1  2  1  0  0  0  0
  2  3  1  0  0  0  0
  3  4  2  0  0  0  0
  1  5  2  0  0  0  0
  1  6  2  0  0  0  0
  3  7  2  0  0  0  0
  3  8  1  0  0  0  0
  1  9  1  0  0  0  0
  8 10  1  0  0  0  0
  8 11  1  0  0  0  0
  8 12  1  0  0  0  0
  9 13  1  0  0  0  0
  9 14  1  0  0  0  0
  9 15  1  0  0  0  0
 16 17  1  0  0  0  0
 16 18  1  0  0  0  0
 16 19  1  0  0  0  0
 16 20  1  0  0  0  0
 21 22  2  0  0  0  0
 22 23  1  0  0  0  0
 23 24  2  0  0  0  0
 24 25  1  0  0  0  0
 25 26  2  0  0  0  0
 26 21  1  0  0  0  0
 27 28  2  0  0  0  0
 28 29  1  0  0  0  0
 29 30  2  0  0  0  0
 30 31  1  0  0  0  0
 31 32  2  0  0  0  0
 32 27  1  0  0  0  0
 33 34  2  0  0  0  0
 34 35  1  0  0  0  0
 35 36  2  0  0  0  0
 36 37  1  0  0  0  0
 37 38  2  0  0  0  0
 38 33  1  0  0  0  0
 39 40  2  0  0  0  0
 40 41  1  0  0  0  0
 41 42  2  0  0  0  0
 42 43  1  0  0  0  0
 43 44  2  0  0  0  0
 44 39  1  0  0  0  0
 45 46  2  0  0  0  0
 46 47  1  0  0  0  0
 47 48  2  0  0  0  0
 48 49  1  0  0  0  0
 49 50  2  0  0  0  0
 50 45  1  0  0  0  0
 51 52  2  0  0  0  0
 52 53  1  0  0  0  0
 53 54  2  0  0  0  0
 54 55  1  0  0  0  0
 55 56  2  0  0  0  0
 56 51  1  0  0  0  0
 57 58  2  0  0  0  0
 58 59  1  0  0  0  0
 59 60  2  0  0  0  0
 60 61  1  0  0  0  0
 61 62  2  0  0  0  0
 62 57  1  0  0  0  0
 63 64  2  0  0  0  0
 64 65  1  0  0  0  0
 65 66  2  0  0  0  0
 66 67  1  0  0  0  0
 67 68  2  0  0  0  0
 68 63  1  0  0  0  0
 67 17  1  0  0  0  0
 62 17  1  0  0  0  0
 56 19  1  0  0  0  0
 50 19  1  0  0  0  0
 35 20  1  0  0  0  0
 40 20  1  0  0  0  0
 29 18  1  0  0  0  0
 24 18  1  0  0  0  0
 19 69  1  0  0  0  0
 70 20  1  0  0  0  0
 17 71  1  0  0  0  0
 18 72  1  0  0  0  0
 71 72  1  0  0  0  0
 69 70  1  0  0  0  0
 21 73  1  0  0  0  0
 32 74  1  0  0  0  0
 38 75  1  0  0  0  0
 43 76  1  0  0  0  0
 47 77  1  0  0  0  0
 53 78  1  0  0  0  0
 59 79  1  0  0  0  0
 64 80  1  0  0  0  0
 80 81  1  0  0  0  0
 80 82  1  0  0  0  0
 80 83  1  0  0  0  0
 79 84  1  0  0  0  0
 79 85  1  0  0  0  0
 79 86  1  0  0  0  0
 78 87  1  0  0  0  0
 78 88  1  0  0  0  0
 78 89  1  0  0  0  0
 77 90  1  0  0  0  0
 77 91  1  0  0  0  0
 77 92  1  0  0  0  0
 76 93  1  0  0  0  0
 76 94  1  0  0  0  0
 76 95  1  0  0  0  0
 75 96  1  0  0  0  0
 75 97  1  0  0  0  0
 75 98  1  0  0  0  0
 74 99  1  0  0  0  0
 74100  1  0  0  0  0
 74101  1  0  0  0  0
 73102  1  0  0  0  0
 73103  1  0  0  0  0
 73104  1  0  0  0  0
M  END
> <NMREDATA_VERSION>
1.1

> <NMREDATA_LEVEL>
0

> <NMREDATA_SOLVENT>
THF-d8

> <NMREDATA_TEMPERATURE>
298

> <NMREDATA_FORMULA>
C62H45F30NO4P4RhS2

> <NMREDATA_SMILES>
FC(S(=O)(=O)NS(=O)(=O)C(F)(F)F)(F)F.FC(c1ccc(cc1)P1(CCP([Rh]21P(CCP2(c1ccc(cc1)C(F)(F)F)c1ccc(cc1)C(F)(F)F)(c1ccc(cc1)C(F)(F)F)c1ccc(cc1)C(F)(F)F)(c1ccc(cc1)C(F)(F)F)c1ccc(cc1)C(F)(F)F)c1ccc(cc1)C(F)(F)F)(F)F

> <NMREDATA_ASSIGNMENT>
Rh16, -1064.00, 16

> <NMREDATA_1D_103Rh>
-1064.00, L=Rh16

$$$$
RhMan0925_0019.mol
  ChemDraw12142511242D

M  V30 COUNTS 80 88 0 0 0
  5.352719 -0.017188  0.000000 S    0  0  0  0  0  0  0
  6.067190  0.395312  0.000000 N    0  5  0  0  0  0  0
  6.781661 -0.017188  0.000000 S    0  0  0  0  0  0  0
  7.496132  0.395312  0.000000 O    0  0  0  0  0  0  0
  4.638249  0.395312  0.000000 O    0  0  0  0  0  0  0
  5.352719 -0.842188  0.000000 O    0  0  0  0  0  0  0
  6.781661 -0.842188  0.000000 O    0  0  0  0  0  0  0
  7.496132 -0.429688  0.000000 C    0  0  0  0  0  0  0
  4.638249 -0.429688  0.000000 C    0  0  0  0  0  0  0
  8.210603 -0.017188  0.000000 F    0  0  0  0  0  0  0
  7.496132 -1.254688  0.000000 F    0  0  0  0  0  0  0
  8.210603 -0.842188  0.000000 F    0  0  0  0  0  0  0
  3.923778 -0.017188  0.000000 F    0  0  0  0  0  0  0
  4.638249 -1.254688  0.000000 F    0  0  0  0  0  0  0
  3.923778 -0.842188  0.000000 F    0  0  0  0  0  0  0
 -2.278534 -0.085938  0.000000 Rh   0  0  0  0  0  0  0
 -2.993005 -0.498438  0.000000 P    0  0  0  0  0  0  0
 -2.993005  0.326562  0.000000 P    0  0  0  0  0  0  0
 -1.564063 -0.498438  0.000000 P    0  0  0  0  0  0  0
 -1.564063  0.326562  0.000000 P    0  0  0  0  0  0  0
 -5.330506  2.045313  0.000000 C    0  0  0  0  0  0  0
 -5.330506  1.220313  0.000000 C    0  0  0  0  0  0  0
 -4.616035  0.807813  0.000000 C    0  3  0  0  0  0  0
 -3.901564  1.220313  0.000000 C    0  0  0  0  0  0  0
 -3.901564  2.045313  0.000000 C    0  0  0  0  0  0  0
 -4.616035  2.457813  0.000000 C    0  0  0  0  0  0  0
 -3.439880  2.835939  0.000000 C    0  0  0  0  0  0  0
 -3.439880  2.010939  0.000000 C    0  0  0  0  0  0  0
 -2.725409  1.598439  0.000000 C    0  0  0  0  0  0  0
 -2.010938  2.010939  0.000000 C    0  0  0  0  0  0  0
 -2.010938  2.835939  0.000000 C    0  0  0  0  0  0  0
 -2.725409  3.248439  0.000000 C    0  0  0  0  0  0  0
 -1.411754  2.423438  0.000000 C    0  0  0  0  0  0  0
 -1.411754  1.598438  0.000000 C    0  0  0  0  0  0  0
 -0.697283  1.185938  0.000000 C    0  0  0  0  0  0  0
  0.017187  1.598438  0.000000 C    0  0  0  0  0  0  0
  0.017187  2.423438  0.000000 C    0  0  0  0  0  0  0
 -0.697283  2.835938  0.000000 C    0  0  0  0  0  0  0
 -0.036754  1.357813  0.000000 C    0  0  0  0  0  0  0
 -0.036754  0.532813  0.000000 C    0  0  0  0  0  0  0
  0.677718  0.120313  0.000000 C    0  0  0  0  0  0  0
  1.392188  0.532813  0.000000 C    0  0  0  0  0  0  0
  1.392188  1.357813  0.000000 C    0  0  0  0  0  0  0
  0.677718  1.770313  0.000000 C    0  0  0  0  0  0  0
 -1.308629 -1.529689  0.000000 C    0  0  0  0  0  0  0
 -1.308629 -2.354689  0.000000 C    0  0  0  0  0  0  0
  0.120312 -2.354689  0.000000 C    0  0  0  0  0  0  0
  0.120312 -1.529689  0.000000 C    0  0  0  0  0  0  0
 -0.594158 -1.117189  0.000000 C    0  0  0  0  0  0  0
 -2.993005 -2.010939  0.000000 C    0  0  0  0  0  0  0
 -2.993005 -2.835939  0.000000 C    0  0  0  0  0  0  0
 -2.278534 -3.248439  0.000000 C    0  0  0  0  0  0  0
 -1.564063 -2.835939  0.000000 C    0  0  0  0  0  0  0
 -1.564063 -2.010939  0.000000 C    0  0  0  0  0  0  0
 -2.278534 -1.598439  0.000000 C    0  0  0  0  0  0  0
 -5.124256 -2.010939  0.000000 C    0  0  0  0  0  0  0
 -5.124256 -2.835939  0.000000 C    0  0  0  0  0  0  0
 -4.409785 -3.248439  0.000000 C    0  0  0  0  0  0  0
 -3.695314 -2.835939  0.000000 C    0  0  0  0  0  0  0
 -3.695314 -2.010939  0.000000 C    0  0  0  0  0  0  0
 -4.409785 -1.598439  0.000000 C    0  0  0  0  0  0  0
 -7.496132 -1.254689  0.000000 C    0  0  0  0  0  0  0
 -7.496132 -2.079689  0.000000 C    0  0  0  0  0  0  0
 -6.781660 -2.492189  0.000000 C    0  0  0  0  0  0  0
 -6.067190 -2.079689  0.000000 C    0  0  0  0  0  0  0
 -6.067190 -1.254689  0.000000 C    0  0  0  0  0  0  0
 -6.781660 -0.842189  0.000000 C    0  0  0  0  0  0  0
 -0.739063 -0.498438  0.000000 C    0  0  0  0  0  0  0
 -0.767175  0.113037  0.000000 C    0  0  0  0  0  0  0
 -3.818005 -0.498438  0.000000 C    0  0  0  0  0  0  0
 -4.237910  0.395312  0.000000 C    0  0  0  0  0  0  0
 -6.044977  2.457813  0.000000 F    0  0  0  0  0  0  0
 -2.725409  4.073439  0.000000 F    0  0  0  0  0  0  0
 -0.697283  3.660938  0.000000 F    0  0  0  0  0  0  0
  2.106659  1.770313  0.000000 F    0  0  0  0  0  0  0
 -2.278534 -4.073439  0.000000 F    0  0  0  0  0  0  0
 -4.409785 -4.073439  0.000000 F    0  0  0  0  0  0  0
 -8.210603 -2.492189  0.000000 F    0  0  0  0  0  0  0
 -0.594158 -2.767189  0.000000 C    0  0  0  0  0  0  0
 -0.594158 -3.592189  0.000000 F    0  0  0  0  0  0  0
  1  2  1  0  0  0  0
  2  3  1  0  0  0  0
  3  4  2  0  0  0  0
  1  5  2  0  0  0  0
  1  6  2  0  0  0  0
  3  7  2  0  0  0  0
  3  8  1  0  0  0  0
  1  9  1  0  0  0  0
  8 10  1  0  0  0  0
  8 11  1  0  0  0  0
  8 12  1  0  0  0  0
  9 13  1  0  0  0  0
  9 14  1  0  0  0  0
  9 15  1  0  0  0  0
 16 17  1  0  0  0  0
 16 18  1  0  0  0  0
 16 19  1  0  0  0  0
 16 20  1  0  0  0  0
 21 22  2  0  0  0  0
 22 23  1  0  0  0  0
 23 24  2  0  0  0  0
 24 25  1  0  0  0  0
 25 26  2  0  0  0  0
 26 21  1  0  0  0  0
 27 28  2  0  0  0  0
 28 29  1  0  0  0  0
 29 30  2  0  0  0  0
 30 31  1  0  0  0  0
 31 32  2  0  0  0  0
 32 27  1  0  0  0  0
 33 34  2  0  0  0  0
 34 35  1  0  0  0  0
 35 36  2  0  0  0  0
 36 37  1  0  0  0  0
 37 38  2  0  0  0  0
 38 33  1  0  0  0  0
 39 40  2  0  0  0  0
 40 41  1  0  0  0  0
 41 42  2  0  0  0  0
 42 43  1  0  0  0  0
 43 44  2  0  0  0  0
 44 39  1  0  0  0  0
 45 46  2  0  0  0  0
 46 79  1  0  0  0  0
 79 47  2  0  0  0  0
 47 48  1  0  0  0  0
 48 49  2  0  0  0  0
 49 45  1  0  0  0  0
 50 51  2  0  0  0  0
 51 52  1  0  0  0  0
 52 53  2  0  0  0  0
 53 54  1  0  0  0  0
 54 55  2  0  0  0  0
 55 50  1  0  0  0  0
 56 57  2  0  0  0  0
 57 58  1  0  0  0  0
 58 59  2  0  0  0  0
 59 60  1  0  0  0  0
 60 61  2  0  0  0  0
 61 56  1  0  0  0  0
 62 63  2  0  0  0  0
 63 64  1  0  0  0  0
 64 65  2  0  0  0  0
 65 66  1  0  0  0  0
 66 67  2  0  0  0  0
 67 62  1  0  0  0  0
 66 17  1  0  0  0  0
 61 17  1  0  0  0  0
 55 19  1  0  0  0  0
 49 19  1  0  0  0  0
 35 20  1  0  0  0  0
 40 20  1  0  0  0  0
 29 18  1  0  0  0  0
 24 18  1  0  0  0  0
 19 68  1  0  0  0  0
 69 20  1  0  0  0  0
 17 70  1  0  0  0  0
 18 71  1  0  0  0  0
 70 71  1  0  0  0  0
 68 69  1  0  0  0  0
 21 72  1  0  0  0  0
 32 73  1  0  0  0  0
 38 74  1  0  0  0  0
 43 75  1  0  0  0  0
 52 76  1  0  0  0  0
 58 77  1  0  0  0  0
 63 78  1  0  0  0  0
 79 80  1  0  0  0  0
M  END
> <NMREDATA_VERSION>
1.1

> <NMREDATA_LEVEL>
0

> <NMREDATA_SOLVENT>
THF-d8

> <NMREDATA_TEMPERATURE>
298

> <NMREDATA_FORMULA>
C54H45F14NO4P4RhS2

> <NMREDATA_SMILES>
FC(S(=O)(=O)NS(=O)(=O)C(F)(F)F)(F)F.Fc1ccc(cc1)P1(CCP([Rh]21P(CCP2(c1ccc(cc1)F)c1ccc(cc1)F)(c1ccc(cc1)F)c1ccc(cc1)F)(c1ccc(cc1)F)c1ccc(cc1)F)c1ccc(cc1)F

> <NMREDATA_ASSIGNMENT>
Rh16, -1089.00, 16

> <NMREDATA_1D_103Rh>
-1089.00, L=Rh16

$$$$
RhMan0925_0020.mol
  ChemDraw12142511252D

M  V30 COUNTS 80 88 0 0 0
  5.352719 -0.017188  0.000000 S    0  0  0  0  0  0  0
  6.067190  0.395312  0.000000 N    0  5  0  0  0  0  0
  6.781661 -0.017188  0.000000 S    0  0  0  0  0  0  0
  7.496132  0.395312  0.000000 O    0  0  0  0  0  0  0
  4.638249  0.395312  0.000000 O    0  0  0  0  0  0  0
  5.352719 -0.842188  0.000000 O    0  0  0  0  0  0  0
  6.781661 -0.842188  0.000000 O    0  0  0  0  0  0  0
  7.496132 -0.429688  0.000000 C    0  0  0  0  0  0  0
  4.638249 -0.429688  0.000000 C    0  0  0  0  0  0  0
  8.210603 -0.017188  0.000000 F    0  0  0  0  0  0  0
  7.496132 -1.254688  0.000000 F    0  0  0  0  0  0  0
  8.210603 -0.842188  0.000000 F    0  0  0  0  0  0  0
  3.923778 -0.017188  0.000000 F    0  0  0  0  0  0  0
  4.638249 -1.254688  0.000000 F    0  0  0  0  0  0  0
  3.923778 -0.842188  0.000000 F    0  0  0  0  0  0  0
 -2.278534 -0.085938  0.000000 Rh   0  0  0  0  0  0  0
 -2.993005 -0.498438  0.000000 P    0  0  0  0  0  0  0
 -2.993005  0.326562  0.000000 P    0  0  0  0  0  0  0
 -1.564063 -0.498438  0.000000 P    0  0  0  0  0  0  0
 -1.564063  0.326562  0.000000 P    0  0  0  0  0  0  0
 -5.330506  2.045313  0.000000 C    0  0  0  0  0  0  0
 -5.330506  1.220313  0.000000 C    0  0  0  0  0  0  0
 -4.616035  0.807813  0.000000 C    0  3  0  0  0  0  0
 -3.901564  1.220313  0.000000 C    0  0  0  0  0  0  0
 -3.901564  2.045313  0.000000 C    0  0  0  0  0  0  0
 -4.616035  2.457813  0.000000 C    0  0  0  0  0  0  0
 -3.439880  2.835939  0.000000 C    0  0  0  0  0  0  0
 -3.439880  2.010939  0.000000 C    0  0  0  0  0  0  0
 -2.725409  1.598439  0.000000 C    0  0  0  0  0  0  0
 -2.010938  2.010939  0.000000 C    0  0  0  0  0  0  0
 -2.010938  2.835939  0.000000 C    0  0  0  0  0  0  0
 -2.725409  3.248439  0.000000 C    0  0  0  0  0  0  0
 -1.411754  2.423438  0.000000 C    0  0  0  0  0  0  0
 -1.411754  1.598438  0.000000 C    0  0  0  0  0  0  0
 -0.697283  1.185938  0.000000 C    0  0  0  0  0  0  0
  0.017187  1.598438  0.000000 C    0  0  0  0  0  0  0
  0.017187  2.423438  0.000000 C    0  0  0  0  0  0  0
 -0.697283  2.835938  0.000000 C    0  0  0  0  0  0  0
 -0.036754  1.357813  0.000000 C    0  0  0  0  0  0  0
 -0.036754  0.532813  0.000000 C    0  0  0  0  0  0  0
  0.677718  0.120313  0.000000 C    0  0  0  0  0  0  0
  1.392188  0.532813  0.000000 C    0  0  0  0  0  0  0
  1.392188  1.357813  0.000000 C    0  0  0  0  0  0  0
  0.677718  1.770313  0.000000 C    0  0  0  0  0  0  0
 -1.308629 -1.529689  0.000000 C    0  0  0  0  0  0  0
 -1.308629 -2.354689  0.000000 C    0  0  0  0  0  0  0
  0.120312 -2.354689  0.000000 C    0  0  0  0  0  0  0
  0.120312 -1.529689  0.000000 C    0  0  0  0  0  0  0
 -0.594158 -1.117189  0.000000 C    0  0  0  0  0  0  0
 -2.993005 -2.010939  0.000000 C    0  0  0  0  0  0  0
 -2.993005 -2.835939  0.000000 C    0  0  0  0  0  0  0
 -2.278534 -3.248439  0.000000 C    0  0  0  0  0  0  0
 -1.564063 -2.835939  0.000000 C    0  0  0  0  0  0  0
 -1.564063 -2.010939  0.000000 C    0  0  0  0  0  0  0
 -2.278534 -1.598439  0.000000 C    0  0  0  0  0  0  0
 -5.124256 -2.010939  0.000000 C    0  0  0  0  0  0  0
 -5.124256 -2.835939  0.000000 C    0  0  0  0  0  0  0
 -4.409785 -3.248439  0.000000 C    0  0  0  0  0  0  0
 -3.695314 -2.835939  0.000000 C    0  0  0  0  0  0  0
 -3.695314 -2.010939  0.000000 C    0  0  0  0  0  0  0
 -4.409785 -1.598439  0.000000 C    0  0  0  0  0  0  0
 -7.496132 -1.254689  0.000000 C    0  0  0  0  0  0  0
 -7.496132 -2.079689  0.000000 C    0  0  0  0  0  0  0
 -6.781660 -2.492189  0.000000 C    0  0  0  0  0  0  0
 -6.067190 -2.079689  0.000000 C    0  0  0  0  0  0  0
 -6.067190 -1.254689  0.000000 C    0  0  0  0  0  0  0
 -6.781660 -0.842189  0.000000 C    0  0  0  0  0  0  0
 -0.739063 -0.498438  0.000000 C    0  0  0  0  0  0  0
 -0.767175  0.113037  0.000000 C    0  0  0  0  0  0  0
 -3.818005 -0.498438  0.000000 C    0  0  0  0  0  0  0
 -4.237910  0.395312  0.000000 C    0  0  0  0  0  0  0
 -6.044977  2.457813  0.000000 C    0  0  0  0  0  0  0
 -2.725409  4.073439  0.000000 C    0  0  0  0  0  0  0
 -0.697283  3.660938  0.000000 C    0  0  0  0  0  0  0
  2.106659  1.770313  0.000000 C    0  0  0  0  0  0  0
 -2.278534 -4.073439  0.000000 C    0  0  0  0  0  0  0
 -4.409785 -4.073439  0.000000 C    0  0  0  0  0  0  0
 -8.210603 -2.492189  0.000000 C    0  0  0  0  0  0  0
 -0.594158 -2.767189  0.000000 C    0  0  0  0  0  0  0
 -0.594158 -3.592189  0.000000 C    0  0  0  0  0  0  0
  1  2  1  0  0  0  0
  2  3  1  0  0  0  0
  3  4  2  0  0  0  0
  1  5  2  0  0  0  0
  1  6  2  0  0  0  0
  3  7  2  0  0  0  0
  3  8  1  0  0  0  0
  1  9  1  0  0  0  0
  8 10  1  0  0  0  0
  8 11  1  0  0  0  0
  8 12  1  0  0  0  0
  9 13  1  0  0  0  0
  9 14  1  0  0  0  0
  9 15  1  0  0  0  0
 16 17  1  0  0  0  0
 16 18  1  0  0  0  0
 16 19  1  0  0  0  0
 16 20  1  0  0  0  0
 21 22  2  0  0  0  0
 22 23  1  0  0  0  0
 23 24  2  0  0  0  0
 24 25  1  0  0  0  0
 25 26  2  0  0  0  0
 26 21  1  0  0  0  0
 27 28  2  0  0  0  0
 28 29  1  0  0  0  0
 29 30  2  0  0  0  0
 30 31  1  0  0  0  0
 31 32  2  0  0  0  0
 32 27  1  0  0  0  0
 33 34  2  0  0  0  0
 34 35  1  0  0  0  0
 35 36  2  0  0  0  0
 36 37  1  0  0  0  0
 37 38  2  0  0  0  0
 38 33  1  0  0  0  0
 39 40  2  0  0  0  0
 40 41  1  0  0  0  0
 41 42  2  0  0  0  0
 42 43  1  0  0  0  0
 43 44  2  0  0  0  0
 44 39  1  0  0  0  0
 45 46  2  0  0  0  0
 46 79  1  0  0  0  0
 79 47  2  0  0  0  0
 47 48  1  0  0  0  0
 48 49  2  0  0  0  0
 49 45  1  0  0  0  0
 50 51  2  0  0  0  0
 51 52  1  0  0  0  0
 52 53  2  0  0  0  0
 53 54  1  0  0  0  0
 54 55  2  0  0  0  0
 55 50  1  0  0  0  0
 56 57  2  0  0  0  0
 57 58  1  0  0  0  0
 58 59  2  0  0  0  0
 59 60  1  0  0  0  0
 60 61  2  0  0  0  0
 61 56  1  0  0  0  0
 62 63  2  0  0  0  0
 63 64  1  0  0  0  0
 64 65  2  0  0  0  0
 65 66  1  0  0  0  0
 66 67  2  0  0  0  0
 67 62  1  0  0  0  0
 66 17  1  0  0  0  0
 61 17  1  0  0  0  0
 55 19  1  0  0  0  0
 49 19  1  0  0  0  0
 35 20  1  0  0  0  0
 40 20  1  0  0  0  0
 29 18  1  0  0  0  0
 24 18  1  0  0  0  0
 19 68  1  0  0  0  0
 69 20  1  0  0  0  0
 17 70  1  0  0  0  0
 18 71  1  0  0  0  0
 70 71  1  0  0  0  0
 68 69  1  0  0  0  0
 21 72  1  0  0  0  0
 32 73  1  0  0  0  0
 38 74  1  0  0  0  0
 43 75  1  0  0  0  0
 52 76  1  0  0  0  0
 58 77  1  0  0  0  0
 63 78  1  0  0  0  0
 79 80  1  0  0  0  0
M  END
> <NMREDATA_VERSION>
1.1

> <NMREDATA_LEVEL>
0

> <NMREDATA_SOLVENT>
THF-d8

> <NMREDATA_TEMPERATURE>
298

> <NMREDATA_FORMULA>
C62H69F6NO4P4RhS2

> <NMREDATA_SMILES>
FC(S(=O)(=O)NS(=O)(=O)C(F)(F)F)(F)F.Cc1ccc(cc1)P1(CCP([Rh]21P(CCP2(c1ccc(cc1)C)c1ccc(cc1)C)(c1ccc(cc1)C)c1ccc(cc1)C)(c1ccc(cc1)C)c1ccc(cc1)C)c1ccc(cc1)C

> <NMREDATA_ASSIGNMENT>
Rh16, -1089.00, 16

> <NMREDATA_1D_103Rh>
-1089.00, L=Rh16

$$$$
RhMan0925_0021.mol
  ChemDraw12142511262D

M  V30 COUNTS 88 96 0 0 0
  5.709955 -0.017188  0.000000 S    0  0  0  0  0  0  0
  6.424426  0.395312  0.000000 N    0  5  0  0  0  0  0
  7.138897 -0.017188  0.000000 S    0  0  0  0  0  0  0
  7.853368  0.395312  0.000000 O    0  0  0  0  0  0  0
  4.995484  0.395312  0.000000 O    0  0  0  0  0  0  0
  5.709955 -0.842188  0.000000 O    0  0  0  0  0  0  0
  7.138897 -0.842188  0.000000 O    0  0  0  0  0  0  0
  7.853368 -0.429688  0.000000 C    0  0  0  0  0  0  0
  4.995484 -0.429688  0.000000 C    0  0  0  0  0  0  0
  8.567838 -0.017188  0.000000 F    0  0  0  0  0  0  0
  7.853368 -1.254688  0.000000 F    0  0  0  0  0  0  0
  8.567838 -0.842188  0.000000 F    0  0  0  0  0  0  0
  4.281013 -0.017188  0.000000 F    0  0  0  0  0  0  0
  4.995484 -1.254688  0.000000 F    0  0  0  0  0  0  0
  4.281013 -0.842188  0.000000 F    0  0  0  0  0  0  0
 -1.921298 -0.085938  0.000000 Rh   0  0  0  0  0  0  0
 -2.635770 -0.498438  0.000000 P    0  0  0  0  0  0  0
 -2.635770  0.326562  0.000000 P    0  0  0  0  0  0  0
 -1.206827 -0.498438  0.000000 P    0  0  0  0  0  0  0
 -1.206827  0.326562  0.000000 P    0  0  0  0  0  0  0
 -4.973270  2.045313  0.000000 C    0  0  0  0  0  0  0
 -4.973270  1.220313  0.000000 C    0  0  0  0  0  0  0
 -4.258800  0.807813  0.000000 C    0  3  0  0  0  0  0
 -3.544328  1.220313  0.000000 C    0  0  0  0  0  0  0
 -3.544328  2.045313  0.000000 C    0  0  0  0  0  0  0
 -4.258800  2.457813  0.000000 C    0  0  0  0  0  0  0
 -3.082644  2.835939  0.000000 C    0  0  0  0  0  0  0
 -3.082644  2.010939  0.000000 C    0  0  0  0  0  0  0
 -2.368174  1.598439  0.000000 C    0  0  0  0  0  0  0
 -1.653703  2.010939  0.000000 C    0  0  0  0  0  0  0
 -1.653703  2.835939  0.000000 C    0  0  0  0  0  0  0
 -2.368174  3.248439  0.000000 C    0  0  0  0  0  0  0
 -1.054519  2.423438  0.000000 C    0  0  0  0  0  0  0
 -1.054519  1.598438  0.000000 C    0  0  0  0  0  0  0
 -0.340047  1.185938  0.000000 C    0  0  0  0  0  0  0
  0.374423  1.598438  0.000000 C    0  0  0  0  0  0  0
  0.374423  2.423438  0.000000 C    0  0  0  0  0  0  0
 -0.340047  2.835938  0.000000 C    0  0  0  0  0  0  0
  0.320482  1.357813  0.000000 C    0  0  0  0  0  0  0
  0.320482  0.532813  0.000000 C    0  0  0  0  0  0  0
  1.034953  0.120313  0.000000 C    0  0  0  0  0  0  0
  1.749423  0.532813  0.000000 C    0  0  0  0  0  0  0
  1.749423  1.357813  0.000000 C    0  0  0  0  0  0  0
  1.034953  1.770313  0.000000 C    0  0  0  0  0  0  0
 -0.951393 -1.529689  0.000000 C    0  0  0  0  0  0  0
 -0.951393 -2.354689  0.000000 C    0  0  0  0  0  0  0
  0.477548 -2.354689  0.000000 C    0  0  0  0  0  0  0
  0.477548 -1.529689  0.000000 C    0  0  0  0  0  0  0
 -0.236922 -1.117189  0.000000 C    0  0  0  0  0  0  0
 -2.635770 -2.010939  0.000000 C    0  0  0  0  0  0  0
 -2.635770 -2.835939  0.000000 C    0  0  0  0  0  0  0
 -1.921298 -3.248439  0.000000 C    0  0  0  0  0  0  0
 -1.206827 -2.835939  0.000000 C    0  0  0  0  0  0  0
 -1.206827 -2.010939  0.000000 C    0  0  0  0  0  0  0
 -1.921298 -1.598439  0.000000 C    0  0  0  0  0  0  0
 -4.767020 -2.010939  0.000000 C    0  0  0  0  0  0  0
 -4.767020 -2.835939  0.000000 C    0  0  0  0  0  0  0
 -4.052549 -3.248439  0.000000 C    0  0  0  0  0  0  0
 -3.338078 -2.835939  0.000000 C    0  0  0  0  0  0  0
 -3.338078 -2.010939  0.000000 C    0  0  0  0  0  0  0
 -4.052549 -1.598439  0.000000 C    0  0  0  0  0  0  0
 -7.138896 -1.254689  0.000000 C    0  0  0  0  0  0  0
 -7.138896 -2.079689  0.000000 C    0  0  0  0  0  0  0
 -6.424425 -2.492189  0.000000 C    0  0  0  0  0  0  0
 -5.709955 -2.079689  0.000000 C    0  0  0  0  0  0  0
 -5.709955 -1.254689  0.000000 C    0  0  0  0  0  0  0
 -6.424425 -0.842189  0.000000 C    0  0  0  0  0  0  0
 -0.381827 -0.498438  0.000000 C    0  0  0  0  0  0  0
 -0.409939  0.113037  0.000000 C    0  0  0  0  0  0  0
 -3.460770 -0.498438  0.000000 C    0  0  0  0  0  0  0
 -3.880674  0.395312  0.000000 C    0  0  0  0  0  0  0
 -5.687741  2.457813  0.000000 O    0  0  0  0  0  0  0
 -2.368174  4.073439  0.000000 O    0  0  0  0  0  0  0
 -0.340047  3.660938  0.000000 O    0  0  0  0  0  0  0
  2.463895  1.770313  0.000000 O    0  0  0  0  0  0  0
 -1.921298 -4.073439  0.000000 O    0  0  0  0  0  0  0
 -4.052549 -4.073439  0.000000 O    0  0  0  0  0  0  0
 -7.853367 -2.492189  0.000000 O    0  0  0  0  0  0  0
 -0.236922 -2.767189  0.000000 C    0  0  0  0  0  0  0
 -0.236922 -3.592189  0.000000 O    0  0  0  0  0  0  0
 -8.567838 -2.079689  0.000000 C    0  0  0  0  0  0  0
 -3.338078 -4.485939  0.000000 C    0  0  0  0  0  0  0
 -1.206827 -4.485939  0.000000 C    0  0  0  0  0  0  0
  0.477548 -4.004689  0.000000 C    0  0  0  0  0  0  0
  3.178366  1.357813  0.000000 C    0  0  0  0  0  0  0
 -1.054519  4.073438  0.000000 C    0  0  0  0  0  0  0
 -3.082644  4.485939  0.000000 C    0  0  0  0  0  0  0
 -6.402212  2.045313  0.000000 C    0  0  0  0  0  0  0
  1  2  1  0  0  0  0
  2  3  1  0  0  0  0
  3  4  2  0  0  0  0
  1  5  2  0  0  0  0
  1  6  2  0  0  0  0
  3  7  2  0  0  0  0
  3  8  1  0  0  0  0
  1  9  1  0  0  0  0
  8 10  1  0  0  0  0
  8 11  1  0  0  0  0
  8 12  1  0  0  0  0
  9 13  1  0  0  0  0
  9 14  1  0  0  0  0
  9 15  1  0  0  0  0
 16 17  1  0  0  0  0
 16 18  1  0  0  0  0
 16 19  1  0  0  0  0
 16 20  1  0  0  0  0
 21 22  2  0  0  0  0
 22 23  1  0  0  0  0
 23 24  2  0  0  0  0
 24 25  1  0  0  0  0
 25 26  2  0  0  0  0
 26 21  1  0  0  0  0
 27 28  2  0  0  0  0
 28 29  1  0  0  0  0
 29 30  2  0  0  0  0
 30 31  1  0  0  0  0
 31 32  2  0  0  0  0
 32 27  1  0  0  0  0
 33 34  2  0  0  0  0
 34 35  1  0  0  0  0
 35 36  2  0  0  0  0
 36 37  1  0  0  0  0
 37 38  2  0  0  0  0
 38 33  1  0  0  0  0
 39 40  2  0  0  0  0
 40 41  1  0  0  0  0
 41 42  2  0  0  0  0
 42 43  1  0  0  0  0
 43 44  2  0  0  0  0
 44 39  1  0  0  0  0
 45 46  2  0  0  0  0
 46 79  1  0  0  0  0
 79 47  2  0  0  0  0
 47 48  1  0  0  0  0
 48 49  2  0  0  0  0
 49 45  1  0  0  0  0
 50 51  2  0  0  0  0
 51 52  1  0  0  0  0
 52 53  2  0  0  0  0
 53 54  1  0  0  0  0
 54 55  2  0  0  0  0
 55 50  1  0  0  0  0
 56 57  2  0  0  0  0
 57 58  1  0  0  0  0
 58 59  2  0  0  0  0
 59 60  1  0  0  0  0
 60 61  2  0  0  0  0
 61 56  1  0  0  0  0
 62 63  2  0  0  0  0
 63 64  1  0  0  0  0
 64 65  2  0  0  0  0
 65 66  1  0  0  0  0
 66 67  2  0  0  0  0
 67 62  1  0  0  0  0
 66 17  1  0  0  0  0
 61 17  1  0  0  0  0
 55 19  1  0  0  0  0
 49 19  1  0  0  0  0
 35 20  1  0  0  0  0
 40 20  1  0  0  0  0
 29 18  1  0  0  0  0
 24 18  1  0  0  0  0
 19 68  1  0  0  0  0
 69 20  1  0  0  0  0
 17 70  1  0  0  0  0
 18 71  1  0  0  0  0
 70 71  1  0  0  0  0
 68 69  1  0  0  0  0
 21 72  1  0  0  0  0
 32 73  1  0  0  0  0
 38 74  1  0  0  0  0
 43 75  1  0  0  0  0
 52 76  1  0  0  0  0
 58 77  1  0  0  0  0
 63 78  1  0  0  0  0
 79 80  1  0  0  0  0
 78 81  1  0  0  0  0
 77 82  1  0  0  0  0
 76 83  1  0  0  0  0
 80 84  1  0  0  0  0
 75 85  1  0  0  0  0
 74 86  1  0  0  0  0
 73 87  1  0  0  0  0
 72 88  1  0  0  0  0
M  END
> <NMREDATA_VERSION>
1.1

> <NMREDATA_LEVEL>
0

> <NMREDATA_SOLVENT>
THF-d8

> <NMREDATA_TEMPERATURE>
298

> <NMREDATA_FORMULA>
C62H69F6NO12P4RhS2

> <NMREDATA_SMILES>
FC(S(=O)(=O)NS(=O)(=O)C(F)(F)F)(F)F.COc1ccc(cc1)P1(CCP([Rh]21P(CCP2(c1ccc(cc1)OC)c1ccc(cc1)OC)(c1ccc(cc1)OC)c1ccc(cc1)OC)(c1ccc(cc1)OC)c1ccc(cc1)OC)c1ccc(cc1)OC

> <NMREDATA_ASSIGNMENT>
Rh16, -1097.00, 16

> <NMREDATA_1D_103Rh>
-1097.00, L=Rh16

$$$$
RhMan0925_0022.mol
  ChemDraw12142511312D

M  V30 COUNTS 80 88 0 0 0
  5.476346  0.196338  0.000000 S    0  0  0  0  0  0  0
  6.190817  0.608838  0.000000 N    0  5  0  0  0  0  0
  6.905288  0.196338  0.000000 S    0  0  0  0  0  0  0
  7.619759  0.608838  0.000000 O    0  0  0  0  0  0  0
  4.761876  0.608838  0.000000 O    0  0  0  0  0  0  0
  5.476346 -0.628662  0.000000 O    0  0  0  0  0  0  0
  6.905288 -0.628662  0.000000 O    0  0  0  0  0  0  0
  7.619759 -0.216162  0.000000 C    0  0  0  0  0  0  0
  4.761876 -0.216162  0.000000 C    0  0  0  0  0  0  0
  8.334230  0.196338  0.000000 F    0  0  0  0  0  0  0
  7.619759 -1.041162  0.000000 F    0  0  0  0  0  0  0
  8.334230 -0.628662  0.000000 F    0  0  0  0  0  0  0
  4.047405  0.196338  0.000000 F    0  0  0  0  0  0  0
  4.761876 -1.041162  0.000000 F    0  0  0  0  0  0  0
  4.047405 -0.628662  0.000000 F    0  0  0  0  0  0  0
 -2.154907  0.127588  0.000000 Rh   0  0  0  0  0  0  0
 -2.869378 -0.284912  0.000000 P    0  0  0  0  0  0  0
 -2.869378  0.540088  0.000000 P    0  0  0  0  0  0  0
 -1.440436 -0.284912  0.000000 P    0  0  0  0  0  0  0
 -1.440436  0.540088  0.000000 P    0  0  0  0  0  0  0
 -3.777937  1.433839  0.000000 C    0  0  0  0  0  0  0
 -2.601782  1.811965  0.000000 C    0  0  0  0  0  0  0
 -0.573656  1.399464  0.000000 C    0  0  0  0  0  0  0
 -0.470531 -0.903663  0.000000 C    0  0  0  0  0  0  0
 -2.154907 -1.384913  0.000000 C    0  0  0  0  0  0  0
 -4.286158 -1.384913  0.000000 C    0  0  0  0  0  0  0
 -5.943563 -1.041163  0.000000 C    0  0  0  0  0  0  0
 -0.615436 -0.284912  0.000000 C    0  0  0  0  0  0  0
 -0.643548  0.326563  0.000000 C    0  0  0  0  0  0  0
 -3.694378 -0.284912  0.000000 C    0  0  0  0  0  0  0
 -4.114283  0.608838  0.000000 C    0  0  0  0  0  0  0
 -6.740451 -0.827637  0.000000 C    0  0  0  0  0  0  0
 -4.072632 -2.181801  0.000000 C    0  0  0  0  0  0  0
 -1.941382 -2.181801  0.000000 C    0  0  0  0  0  0  0
  0.354469 -0.903663  0.000000 C    0  0  0  0  0  0  0
  0.223232  1.612990  0.000000 C    0  0  0  0  0  0  0
 -1.941259  1.195680  0.000000 C    0  0  0  0  0  0  0
 -1.941259  2.020680  0.000000 C    0  0  0  0  0  0  0
 -3.185145  2.395327  0.000000 C    0  0  0  0  0  0  0
 -4.602937  1.433839  0.000000 C    0  0  0  0  0  0  0
 -6.953978 -0.030748  0.000000 C    0  0  0  0  0  0  0
 -7.750866  0.182778  0.000000 C    0  0  0  0  0  0  0
 -8.334230 -0.400585  0.000000 C    0  0  0  0  0  0  0
 -8.120703 -1.197474  0.000000 C    0  0  0  0  0  0  0
 -7.323815 -1.411000  0.000000 C    0  0  0  0  0  0  0
 -4.655995 -2.765165  0.000000 C    0  0  0  0  0  0  0
 -4.442469 -3.562053  0.000000 C    0  0  0  0  0  0  0
 -3.645581 -3.775579  0.000000 C    0  0  0  0  0  0  0
 -3.062218 -3.192216  0.000000 C    0  0  0  0  0  0  0
 -3.275743 -2.395327  0.000000 C    0  0  0  0  0  0  0
 -2.524744 -2.765165  0.000000 C    0  0  0  0  0  0  0
 -2.311219 -3.562053  0.000000 C    0  0  0  0  0  0  0
 -1.514330 -3.775579  0.000000 C    0  0  0  0  0  0  0
 -0.930967 -3.192216  0.000000 C    0  0  0  0  0  0  0
 -1.144492 -2.395327  0.000000 C    0  0  0  0  0  0  0
  0.766969 -1.618133  0.000000 C    0  0  0  0  0  0  0
  1.591969 -1.618133  0.000000 C    0  0  0  0  0  0  0
  2.004469 -0.903663  0.000000 C    0  0  0  0  0  0  0
  1.591969 -0.189192  0.000000 C    0  0  0  0  0  0  0
  0.766969 -0.189192  0.000000 C    0  0  0  0  0  0  0
  0.806596  1.029627  0.000000 C    0  0  0  0  0  0  0
  1.603484  1.243152  0.000000 C    0  0  0  0  0  0  0
  1.817010  2.040041  0.000000 C    0  0  0  0  0  0  0
  1.233647  2.623404  0.000000 C    0  0  0  0  0  0  0
  0.436758  2.409879  0.000000 C    0  0  0  0  0  0  0
 -1.226789  2.433180  0.000000 C    0  0  0  0  0  0  0
 -1.226789  3.258180  0.000000 C    0  0  0  0  0  0  0
 -1.941259  3.670680  0.000000 C    0  0  0  0  0  0  0
 -2.655730  3.258180  0.000000 C    0  0  0  0  0  0  0
 -2.655730  2.433180  0.000000 C    0  0  0  0  0  0  0
 -2.971620  3.192217  0.000000 C    0  0  0  0  0  0  0
 -3.554982  3.775579  0.000000 C    0  0  0  0  0  0  0
 -4.351872  3.562054  0.000000 C    0  0  0  0  0  0  0
 -4.565397  2.765165  0.000000 C    0  0  0  0  0  0  0
 -3.982034  2.181802  0.000000 C    0  0  0  0  0  0  0
 -5.015437  2.148310  0.000000 C    0  0  0  0  0  0  0
 -5.840437  2.148310  0.000000 C    0  3  0  0  0  0  0
 -6.252937  1.433839  0.000000 C    0  0  0  0  0  0  0
 -5.840437  0.719368  0.000000 C    0  0  0  0  0  0  0
 -5.015437  0.719368  0.000000 C    0  0  0  0  0  0  0
  1  2  1  0  0  0  0
  2  3  1  0  0  0  0
  3  4  2  0  0  0  0
  1  5  2  0  0  0  0
  1  6  2  0  0  0  0
  3  7  2  0  0  0  0
  3  8  1  0  0  0  0
  1  9  1  0  0  0  0
  8 10  1  0  0  0  0
  8 11  1  0  0  0  0
  8 12  1  0  0  0  0
  9 13  1  0  0  0  0
  9 14  1  0  0  0  0
  9 15  1  0  0  0  0
 16 17  1  0  0  0  0
 16 18  1  0  0  0  0
 16 19  1  0  0  0  0
 16 20  1  0  0  0  0
 27 17  1  0  0  0  0
 26 17  1  0  0  0  0
 25 19  1  0  0  0  0
 24 19  1  0  0  0  0
 23 20  1  0  0  0  0
 22 18  1  0  0  0  0
 21 18  1  0  0  0  0
 19 28  1  0  0  0  0
 29 20  1  0  0  0  0
 17 30  1  0  0  0  0
 18 31  1  0  0  0  0
 30 31  1  0  0  0  0
 28 29  1  0  0  0  0
 27 32  1  0  0  0  0
 26 33  1  0  0  0  0
 25 34  1  0  0  0  0
 24 35  1  0  0  0  0
 23 36  1  0  0  0  0
 20 37  1  0  0  0  0
 37 38  1  0  0  0  0
 22 39  1  0  0  0  0
 21 40  1  0  0  0  0
 32 41  2  0  0  0  0
 41 42  1  0  0  0  0
 42 43  2  0  0  0  0
 43 44  1  0  0  0  0
 44 45  2  0  0  0  0
 45 32  1  0  0  0  0
 33 46  2  0  0  0  0
 46 47  1  0  0  0  0
 47 48  2  0  0  0  0
 48 49  1  0  0  0  0
 49 50  2  0  0  0  0
 50 33  1  0  0  0  0
 34 51  2  0  0  0  0
 51 52  1  0  0  0  0
 52 53  2  0  0  0  0
 53 54  1  0  0  0  0
 54 55  2  0  0  0  0
 55 34  1  0  0  0  0
 35 56  2  0  0  0  0
 56 57  1  0  0  0  0
 57 58  2  0  0  0  0
 58 59  1  0  0  0  0
 59 60  2  0  0  0  0
 60 35  1  0  0  0  0
 36 61  2  0  0  0  0
 61 62  1  0  0  0  0
 62 63  2  0  0  0  0
 63 64  1  0  0  0  0
 64 65  2  0  0  0  0
 65 36  1  0  0  0  0
 38 66  2  0  0  0  0
 66 67  1  0  0  0  0
 67 68  2  0  0  0  0
 68 69  1  0  0  0  0
 69 70  2  0  0  0  0
 70 38  1  0  0  0  0
 39 71  2  0  0  0  0
 71 72  1  0  0  0  0
 72 73  2  0  0  0  0
 73 74  1  0  0  0  0
 74 75  2  0  0  0  0
 75 39  1  0  0  0  0
 40 76  2  0  0  0  0
 76 77  1  0  0  0  0
 77 78  2  0  0  0  0
 78 79  1  0  0  0  0
 79 80  2  0  0  0  0
 80 40  1  0  0  0  0
M  END
> <NMREDATA_VERSION>
1.1

> <NMREDATA_LEVEL>
0

> <NMREDATA_SOLVENT>
THF-d8

> <NMREDATA_TEMPERATURE>
298

> <NMREDATA_FORMULA>
C62H69F6NO4P4RhS2

> <NMREDATA_SMILES>
c1ccc(cc1)CP1(CCP([Rh]21P(CCP2(Cc1ccccc1)Cc1ccccc1)(Cc1ccccc1)Cc1ccccc1)(Cc1ccccc1)Cc1ccccc1)Cc1ccccc1.FC(S(=O)(=O)NS(=O)(=O)C(F)(F)F)(F)F

> <NMREDATA_ASSIGNMENT>
Rh16, -1140.00, 16

> <NMREDATA_1D_103Rh>
-1140.00, L=Rh16

$$$$
RhMan0925_0023.mol
  ChemDraw12142511362D

M  V30 COUNTS 80 88 0 0 0
  5.082128  0.094739  0.000000 S    0  0  0  0  0  0  0
  5.796599  0.507239  0.000000 N    0  5  0  0  0  0  0
  6.511071  0.094739  0.000000 S    0  0  0  0  0  0  0
  7.225542  0.507239  0.000000 O    0  0  0  0  0  0  0
  4.367658  0.507239  0.000000 O    0  0  0  0  0  0  0
  5.082128 -0.730261  0.000000 O    0  0  0  0  0  0  0
  6.511071 -0.730261  0.000000 O    0  0  0  0  0  0  0
  7.225542 -0.317761  0.000000 C    0  0  0  0  0  0  0
  4.367658 -0.317761  0.000000 C    0  0  0  0  0  0  0
  7.940012  0.094739  0.000000 F    0  0  0  0  0  0  0
  7.225542 -1.142761  0.000000 F    0  0  0  0  0  0  0
  7.940012 -0.730261  0.000000 F    0  0  0  0  0  0  0
  3.653187  0.094739  0.000000 F    0  0  0  0  0  0  0
  4.367658 -1.142761  0.000000 F    0  0  0  0  0  0  0
  3.653187 -0.730261  0.000000 F    0  0  0  0  0  0  0
 -2.549125  0.025990  0.000000 Rh   0  0  0  0  0  0  0
 -3.263596 -0.386510  0.000000 P    0  0  0  0  0  0  0
 -3.263596  0.438490  0.000000 P    0  0  0  0  0  0  0
 -1.834654 -0.386510  0.000000 P    0  0  0  0  0  0  0
 -1.834654  0.438490  0.000000 P    0  0  0  0  0  0  0
 -3.477122  1.235378  0.000000 C    0  0  0  0  0  0  0
 -1.037765  0.652015  0.000000 C    0  0  0  0  0  0  0
 -0.864749 -1.005262  0.000000 C    0  0  0  0  0  0  0
 -2.549125 -1.486512  0.000000 C    0  0  0  0  0  0  0
 -4.680376 -1.486512  0.000000 C    0  0  0  0  0  0  0
 -6.337781 -1.142761  0.000000 C    0  0  0  0  0  0  0
 -1.009654 -0.386510  0.000000 C    0  0  0  0  0  0  0
 -1.037765  0.224964  0.000000 C    0  0  0  0  0  0  0
 -4.088596 -0.386510  0.000000 C    0  0  0  0  0  0  0
 -4.233500  0.266615  0.000000 C    0  0  0  0  0  0  0
 -1.834654  1.263490  0.000000 C    0  0  0  0  0  0  0
 -6.909011 -0.547512  0.000000 C    0  0  0  0  0  0  0
 -7.710127 -0.744587  0.000000 C    0  0  0  0  0  0  0
 -7.940012 -1.536911  0.000000 C    0  0  0  0  0  0  0
 -7.368782 -2.132160  0.000000 C    0  0  0  0  0  0  0
 -6.567667 -1.935086  0.000000 C    0  0  0  0  0  0  0
 -5.444361 -1.175141  0.000000 C    0  0  0  0  0  0  0
 -6.096008 -1.681086  0.000000 C    0  0  0  0  0  0  0
 -5.983671 -2.498402  0.000000 C    0  0  0  0  0  0  0
 -5.219686 -2.809773  0.000000 C    0  0  0  0  0  0  0
 -4.568038 -2.303827  0.000000 C    0  0  0  0  0  0  0
 -3.372991 -1.443270  0.000000 C    0  0  0  0  0  0  0
 -3.822372 -2.135138  0.000000 C    0  0  0  0  0  0  0
 -3.447887 -2.870248  0.000000 C    0  0  0  0  0  0  0
 -2.624021 -2.913490  0.000000 C    0  0  0  0  0  0  0
 -2.174640 -2.221621  0.000000 C    0  0  0  0  0  0  0
 -0.901251 -1.829453  0.000000 C    0  0  0  0  0  0  0
 -0.205730 -2.273160  0.000000 C    0  0  0  0  0  0  0
  0.526292 -1.892676  0.000000 C    0  0  0  0  0  0  0
  0.562793 -1.068484  0.000000 C    0  0  0  0  0  0  0
 -0.132727 -0.624777  0.000000 C    0  0  0  0  0  0  0
 -0.454402  0.068652  0.000000 C    0  0  0  0  0  0  0
  0.342486  0.282178  0.000000 C    0  0  0  0  0  0  0
  0.556013  1.079066  0.000000 C    0  0  0  0  0  0  0
 -0.027351  1.662430  0.000000 C    0  0  0  0  0  0  0
 -0.824239  1.448904  0.000000 C    0  0  0  0  0  0  0
 -1.120183  1.675990  0.000000 C    0  0  0  0  0  0  0
 -1.120183  2.500990  0.000000 C    0  0  0  0  0  0  0
 -1.834654  2.913490  0.000000 C    0  0  0  0  0  0  0
 -2.549125  2.500990  0.000000 C    0  0  0  0  0  0  0
 -2.549125  1.675990  0.000000 C    0  0  0  0  0  0  0
 -2.893758  1.818741  0.000000 C    0  0  0  0  0  0  0
 -3.107284  2.615630  0.000000 C    0  0  0  0  0  0  0
 -3.904173  2.829156  0.000000 C    0  0  0  0  0  0  0
 -4.487536  2.245793  0.000000 C    0  0  0  0  0  0  0
 -4.274010  1.483279  0.000000 C    0  0  0  0  0  0  0
 -7.079222  1.607240  0.000000 C    0  0  0  0  0  0  0
 -7.079222  0.782240  0.000000 C    0  0  0  0  0  0  0
 -6.364751  0.369740  0.000000 C    0  0  0  0  0  0  0
 -5.650281  0.782240  0.000000 C    0  0  0  0  0  0  0
 -5.650281  1.607240  0.000000 C    0  0  0  0  0  0  0
 -6.364751  2.019740  0.000000 C    0  3  0  0  0  0  0
 -6.364751 -0.455260  0.000000 C    0  0  0  0  0  0  0
 -6.679124  0.244812  0.000000 C    0  0  0  0  0  0  0
 -3.804053 -2.615198  0.000000 C    0  0  0  0  0  0  0
 -2.789627 -0.859907  0.000000 C    0  0  0  0  0  0  0
 -1.633273 -2.209938  0.000000 C    0  0  0  0  0  0  0
  0.260069 -0.343848  0.000000 C    0  0  0  0  0  0  0
 -5.070899  1.269753  0.000000 C    0  0  0  0  0  0  0
 -0.536820  2.259352  0.000000 C    0  0  0  0  0  0  0
  1  2  1  0  0  0  0
  2  3  1  0  0  0  0
  3  4  2  0  0  0  0
  1  5  2  0  0  0  0
  1  6  2  0  0  0  0
  3  7  2  0  0  0  0
  3  8  1  0  0  0  0
  1  9  1  0  0  0  0
  8 10  1  0  0  0  0
  8 11  1  0  0  0  0
  8 12  1  0  0  0  0
  9 13  1  0  0  0  0
  9 14  1  0  0  0  0
  9 15  1  0  0  0  0
 16 17  1  0  0  0  0
 16 18  1  0  0  0  0
 16 19  1  0  0  0  0
 16 20  1  0  0  0  0
 26 17  1  0  0  0  0
 25 17  1  0  0  0  0
 24 19  1  0  0  0  0
 23 19  1  0  0  0  0
 22 20  1  0  0  0  0
 21 18  1  0  0  0  0
 19 27  1  0  0  0  0
 28 20  1  0  0  0  0
 17 29  1  0  0  0  0
 18 30  1  0  0  0  0
 29 30  1  0  0  0  0
 27 28  1  0  0  0  0
 20 31  1  0  0  0  0
 26 32  2  0  0  0  0
 32 33  1  0  0  0  0
 33 34  2  0  0  0  0
 34 35  1  0  0  0  0
 35 36  2  0  0  0  0
 36 26  1  0  0  0  0
 25 37  2  0  0  0  0
 37 38  1  0  0  0  0
 38 39  2  0  0  0  0
 39 40  1  0  0  0  0
 40 41  2  0  0  0  0
 41 25  1  0  0  0  0
 24 42  2  0  0  0  0
 42 43  1  0  0  0  0
 43 44  2  0  0  0  0
 44 45  1  0  0  0  0
 45 46  2  0  0  0  0
 46 24  1  0  0  0  0
 23 47  2  0  0  0  0
 47 48  1  0  0  0  0
 48 49  2  0  0  0  0
 49 50  1  0  0  0  0
 50 51  2  0  0  0  0
 51 23  1  0  0  0  0
 22 52  2  0  0  0  0
 52 53  1  0  0  0  0
 53 54  2  0  0  0  0
 54 55  1  0  0  0  0
 55 56  2  0  0  0  0
 56 22  1  0  0  0  0
 31 57  2  0  0  0  0
 57 58  1  0  0  0  0
 58 59  2  0  0  0  0
 59 60  1  0  0  0  0
 60 61  2  0  0  0  0
 61 31  1  0  0  0  0
 21 62  2  0  0  0  0
 62 63  1  0  0  0  0
 63 64  2  0  0  0  0
 64 65  1  0  0  0  0
 65 66  2  0  0  0  0
 66 21  1  0  0  0  0
 67 68  2  0  0  0  0
 68 69  1  0  0  0  0
 69 70  2  0  0  0  0
 70 71  1  0  0  0  0
 71 72  2  0  0  0  0
 72 67  1  0  0  0  0
 69 73  1  0  0  0  0
 32 74  1  0  0  0  0
 41 75  1  0  0  0  0
 42 76  1  0  0  0  0
 47 77  1  0  0  0  0
 52 78  1  0  0  0  0
 66 79  1  0  0  0  0
 57 80  1  0  0  0  0
 18 70  1  0  0  0  0
M  END
> <NMREDATA_VERSION>
1.1

> <NMREDATA_LEVEL>
0

> <NMREDATA_SOLVENT>
THF-d8

> <NMREDATA_TEMPERATURE>
298

> <NMREDATA_FORMULA>
C62H69F6NO4P4RhS2

> <NMREDATA_SMILES>
FC(S(=O)(=O)NS(=O)(=O)C(F)(F)F)(F)F.Cc1ccccc1P1(CCP([Rh]21P(CCP2(c1ccccc1C)c1ccccc1C)(c1ccccc1C)c1ccccc1C)(c1ccccc1C)c1ccccc1C)c1ccccc1C

> <NMREDATA_ASSIGNMENT>
Rh16, -929.00, 16

> <NMREDATA_1D_103Rh>
-929.00, L=Rh16

$$$$
RhMan0925_0024.mol
  ChemDraw12142511392D

M  V30 COUNTS 72 80 0 0 0
  5.082128  0.094739  0.000000 S    0  0  0  0  0  0  0
  5.796599  0.507239  0.000000 N    0  5  0  0  0  0  0
  6.511071  0.094739  0.000000 S    0  0  0  0  0  0  0
  7.225542  0.507239  0.000000 O    0  0  0  0  0  0  0
  4.367658  0.507239  0.000000 O    0  0  0  0  0  0  0
  5.082128 -0.730261  0.000000 O    0  0  0  0  0  0  0
  6.511071 -0.730261  0.000000 O    0  0  0  0  0  0  0
  7.225542 -0.317761  0.000000 C    0  0  0  0  0  0  0
  4.367658 -0.317761  0.000000 C    0  0  0  0  0  0  0
  7.940012  0.094739  0.000000 F    0  0  0  0  0  0  0
  7.225542 -1.142761  0.000000 F    0  0  0  0  0  0  0
  7.940012 -0.730261  0.000000 F    0  0  0  0  0  0  0
  3.653187  0.094739  0.000000 F    0  0  0  0  0  0  0
  4.367658 -1.142761  0.000000 F    0  0  0  0  0  0  0
  3.653187 -0.730261  0.000000 F    0  0  0  0  0  0  0
 -2.549125  0.025990  0.000000 Rh   0  0  0  0  0  0  0
 -3.263596 -0.386510  0.000000 P    0  0  0  0  0  0  0
 -3.263596  0.438490  0.000000 P    0  0  0  0  0  0  0
 -1.834654 -0.386510  0.000000 P    0  0  0  0  0  0  0
 -1.834654  0.438490  0.000000 P    0  0  0  0  0  0  0
 -3.477122  1.235378  0.000000 C    0  0  0  0  0  0  0
 -1.037765  0.652015  0.000000 C    0  0  0  0  0  0  0
 -0.864749 -1.005262  0.000000 C    0  0  0  0  0  0  0
 -2.549125 -1.486512  0.000000 C    0  0  0  0  0  0  0
 -4.680376 -1.486512  0.000000 C    0  0  0  0  0  0  0
 -6.337781 -1.142761  0.000000 C    0  0  0  0  0  0  0
 -1.009654 -0.386510  0.000000 C    0  0  0  0  0  0  0
 -1.037765  0.224964  0.000000 C    0  0  0  0  0  0  0
 -4.088596 -0.386510  0.000000 C    0  0  0  0  0  0  0
 -4.233500  0.266615  0.000000 C    0  0  0  0  0  0  0
 -1.834654  1.263490  0.000000 C    0  0  0  0  0  0  0
 -6.909011 -0.547512  0.000000 C    0  0  0  0  0  0  0
 -7.710127 -0.744587  0.000000 C    0  0  0  0  0  0  0
 -7.940012 -1.536911  0.000000 C    0  0  0  0  0  0  0
 -7.368782 -2.132160  0.000000 C    0  0  0  0  0  0  0
 -6.567667 -1.935086  0.000000 C    0  0  0  0  0  0  0
 -5.444361 -1.175141  0.000000 C    0  0  0  0  0  0  0
 -6.096008 -1.681086  0.000000 C    0  0  0  0  0  0  0
 -5.983671 -2.498402  0.000000 C    0  0  0  0  0  0  0
 -5.219686 -2.809773  0.000000 C    0  0  0  0  0  0  0
 -4.568038 -2.303827  0.000000 C    0  0  0  0  0  0  0
 -3.372991 -1.443270  0.000000 C    0  0  0  0  0  0  0
 -3.822372 -2.135138  0.000000 C    0  0  0  0  0  0  0
 -3.447887 -2.870248  0.000000 C    0  0  0  0  0  0  0
 -2.624021 -2.913490  0.000000 C    0  0  0  0  0  0  0
 -2.174640 -2.221621  0.000000 C    0  0  0  0  0  0  0
 -0.901251 -1.829453  0.000000 C    0  0  0  0  0  0  0
 -0.205730 -2.273160  0.000000 C    0  0  0  0  0  0  0
  0.526292 -1.892676  0.000000 C    0  0  0  0  0  0  0
  0.562793 -1.068484  0.000000 C    0  0  0  0  0  0  0
 -0.132727 -0.624777  0.000000 C    0  0  0  0  0  0  0
 -0.454402  0.068652  0.000000 C    0  0  0  0  0  0  0
  0.342486  0.282178  0.000000 C    0  0  0  0  0  0  0
  0.556013  1.079066  0.000000 C    0  0  0  0  0  0  0
 -0.027351  1.662430  0.000000 C    0  0  0  0  0  0  0
 -0.824239  1.448904  0.000000 C    0  0  0  0  0  0  0
 -1.120183  1.675990  0.000000 C    0  0  0  0  0  0  0
 -1.120183  2.500990  0.000000 C    0  0  0  0  0  0  0
 -1.834654  2.913490  0.000000 C    0  0  0  0  0  0  0
 -2.549125  2.500990  0.000000 C    0  0  0  0  0  0  0
 -2.549125  1.675990  0.000000 C    0  0  0  0  0  0  0
 -2.893758  1.818741  0.000000 C    0  0  0  0  0  0  0
 -3.107284  2.615630  0.000000 C    0  0  0  0  0  0  0
 -3.904173  2.829156  0.000000 C    0  0  0  0  0  0  0
 -4.487536  2.245793  0.000000 C    0  0  0  0  0  0  0
 -4.274010  1.483279  0.000000 C    0  0  0  0  0  0  0
 -7.079222  1.607240  0.000000 C    0  0  0  0  0  0  0
 -7.079222  0.782240  0.000000 C    0  0  0  0  0  0  0
 -6.364751  0.369740  0.000000 C    0  0  0  0  0  0  0
 -5.650281  0.782240  0.000000 C    0  0  0  0  0  0  0
 -5.650281  1.607240  0.000000 C    0  0  0  0  0  0  0
 -6.364751  2.019740  0.000000 C    0  3  0  0  0  0  0
  1  2  1  0  0  0  0
  2  3  1  0  0  0  0
  3  4  2  0  0  0  0
  1  5  2  0  0  0  0
  1  6  2  0  0  0  0
  3  7  2  0  0  0  0
  3  8  1  0  0  0  0
  1  9  1  0  0  0  0
  8 10  1  0  0  0  0
  8 11  1  0  0  0  0
  8 12  1  0  0  0  0
  9 13  1  0  0  0  0
  9 14  1  0  0  0  0
  9 15  1  0  0  0  0
 16 17  1  0  0  0  0
 16 18  1  0  0  0  0
 16 19  1  0  0  0  0
 16 20  1  0  0  0  0
 26 17  1  0  0  0  0
 25 17  1  0  0  0  0
 24 19  1  0  0  0  0
 23 19  1  0  0  0  0
 22 20  1  0  0  0  0
 21 18  1  0  0  0  0
 19 27  1  0  0  0  0
 28 20  1  0  0  0  0
 17 29  1  0  0  0  0
 18 30  1  0  0  0  0
 29 30  1  0  0  0  0
 27 28  1  0  0  0  0
 20 31  1  0  0  0  0
 32 33  1  0  0  0  0
 34 35  1  0  0  0  0
 36 26  1  0  0  0  0
 37 38  1  0  0  0  0
 39 40  1  0  0  0  0
 41 25  1  0  0  0  0
 42 43  1  0  0  0  0
 44 45  1  0  0  0  0
 46 24  1  0  0  0  0
 47 48  1  0  0  0  0
 49 50  1  0  0  0  0
 51 23  1  0  0  0  0
 52 53  1  0  0  0  0
 54 55  1  0  0  0  0
 56 22  1  0  0  0  0
 57 58  1  0  0  0  0
 59 60  1  0  0  0  0
 61 31  1  0  0  0  0
 62 63  1  0  0  0  0
 64 65  1  0  0  0  0
 66 21  1  0  0  0  0
 68 69  1  0  0  0  0
 70 71  1  0  0  0  0
 72 67  1  0  0  0  0
 18 70  1  0  0  0  0
 68 67  1  0  0  0  0
 71 72  1  0  0  0  0
 69 70  1  0  0  0  0
 21 62  1  0  0  0  0
 63 64  1  0  0  0  0
 66 65  1  0  0  0  0
 61 60  1  0  0  0  0
 58 59  1  0  0  0  0
 31 57  1  0  0  0  0
 56 55  1  0  0  0  0
 54 53  1  0  0  0  0
 52 22  1  0  0  0  0
 51 50  1  0  0  0  0
 48 49  1  0  0  0  0
 23 47  1  0  0  0  0
 46 45  1  0  0  0  0
 44 43  1  0  0  0  0
 24 42  1  0  0  0  0
 25 37  1  0  0  0  0
 41 40  1  0  0  0  0
 39 38  1  0  0  0  0
 36 35  1  0  0  0  0
 26 32  1  0  0  0  0
 33 34  1  0  0  0  0
M  END
> <NMREDATA_VERSION>
1.1

> <NMREDATA_LEVEL>
0

> <NMREDATA_SOLVENT>
THF-d8

> <NMREDATA_TEMPERATURE>
298

> <NMREDATA_FORMULA>
C54H101F6NO4P4RhS2

> <NMREDATA_SMILES>
C1CCC(CC1)P1(CCP([Rh]21P(CCP2(C1CCCCC1)C1CCCCC1)(C1CCCCC1)C1CCCCC1)(C1CCCCC1)C1CCCCC1)C1CCCCC1.FC(S(=O)(=O)NS(=O)(=O)C(F)(F)F)(F)F

> <NMREDATA_ASSIGNMENT>
Rh16, -1046.00, 16

> <NMREDATA_1D_103Rh>
-1046.00, L=Rh16

$$$$
RhMan0925_0025.mol
  ChemDraw12142511482D

M  V30 COUNTS 112 120 0 0 0
  5.482686  0.635938  0.000000 S    0  0  0  0  0  0  0
  6.197157  1.048438  0.000000 N    0  5  0  0  0  0  0
  6.911628  0.635938  0.000000 S    0  0  0  0  0  0  0
  7.626100  1.048438  0.000000 O    0  0  0  0  0  0  0
  4.768216  1.048438  0.000000 O    0  0  0  0  0  0  0
  5.482686 -0.189062  0.000000 O    0  0  0  0  0  0  0
  6.911628 -0.189062  0.000000 O    0  0  0  0  0  0  0
  7.626100  0.223438  0.000000 C    0  0  0  0  0  0  0
  4.768216  0.223438  0.000000 C    0  0  0  0  0  0  0
  8.340570  0.635938  0.000000 F    0  0  0  0  0  0  0
  7.626100 -0.601562  0.000000 F    0  0  0  0  0  0  0
  8.340570 -0.189062  0.000000 F    0  0  0  0  0  0  0
  4.053745  0.635938  0.000000 F    0  0  0  0  0  0  0
  4.768216 -0.601562  0.000000 F    0  0  0  0  0  0  0
  4.053745 -0.189062  0.000000 F    0  0  0  0  0  0  0
 -2.148567  0.567188  0.000000 Rh   0  0  0  0  0  0  0
 -2.863038  0.154688  0.000000 P    0  0  0  0  0  0  0
 -2.863038  0.979688  0.000000 P    0  0  0  0  0  0  0
 -1.434096  0.154688  0.000000 P    0  0  0  0  0  0  0
 -1.434096  0.979688  0.000000 P    0  0  0  0  0  0  0
 -0.464191 -0.464063  0.000000 C    0  0  0  0  0  0  0
 -2.148567 -0.945313  0.000000 C    0  0  0  0  0  0  0
 -5.937223 -0.601563  0.000000 C    0  0  0  0  0  0  0
 -0.609096  0.154688  0.000000 C    0  0  0  0  0  0  0
 -0.637207  0.766162  0.000000 C    0  0  0  0  0  0  0
 -3.688038  0.154688  0.000000 C    0  0  0  0  0  0  0
 -3.832942  0.807813  0.000000 C    0  3  0  0  0  0  0
 -1.434096  1.804688  0.000000 C    0  0  0  0  0  0  0
 -6.508453 -0.006314  0.000000 C    0  0  0  0  0  0  0
 -7.309569 -0.203389  0.000000 C    0  0  0  0  0  0  0
 -7.539454 -0.995713  0.000000 C    0  0  0  0  0  0  0
 -6.968224 -1.590962  0.000000 C    0  0  0  0  0  0  0
 -6.167109 -1.393887  0.000000 C    0  0  0  0  0  0  0
 -2.972433 -0.902072  0.000000 C    0  0  0  0  0  0  0
 -3.421814 -1.593940  0.000000 C    0  0  0  0  0  0  0
 -3.047329 -2.329050  0.000000 C    0  0  0  0  0  0  0
 -2.223463 -2.372291  0.000000 C    0  0  0  0  0  0  0
 -1.774082 -1.680423  0.000000 C    0  0  0  0  0  0  0
 -0.500693 -1.288255  0.000000 C    0  0  0  0  0  0  0
  0.194828 -1.731962  0.000000 C    0  0  0  0  0  0  0
  0.926850 -1.351478  0.000000 C    0  0  0  0  0  0  0
  0.963351 -0.527286  0.000000 C    0  0  0  0  0  0  0
  0.267831 -0.083579  0.000000 C    0  0  0  0  0  0  0
 -0.719625  2.217188  0.000000 C    0  0  0  0  0  0  0
 -0.719625  3.042188  0.000000 C    0  0  0  0  0  0  0
 -1.434096  3.454688  0.000000 C    0  0  0  0  0  0  0
 -2.148567  3.042188  0.000000 C    0  0  0  0  0  0  0
 -2.148567  2.217188  0.000000 C    0  0  0  0  0  0  0
 -6.678664  2.148438  0.000000 C    0  0  0  0  0  0  0
 -6.678664  1.323438  0.000000 C    0  0  0  0  0  0  0
 -5.964193  0.910938  0.000000 C    0  0  0  0  0  0  0
 -5.249723  1.323438  0.000000 C    0  0  0  0  0  0  0
 -5.249723  2.148438  0.000000 C    0  0  0  0  0  0  0
 -5.964193  2.560938  0.000000 C    0  0  0  0  0  0  0
 -4.535252  2.560938  0.000000 F    0  0  0  0  0  0  0
 -5.964193  3.385938  0.000000 F    0  0  0  0  0  0  0
 -7.393135  2.560938  0.000000 F    0  0  0  0  0  0  0
 -7.393135  0.910938  0.000000 F    0  0  0  0  0  0  0
 -5.964193  0.085938  0.000000 F    0  0  0  0  0  0  0
 -6.278566  0.786010  0.000000 F    0  0  0  0  0  0  0
 -7.880798  0.391861  0.000000 F    0  0  0  0  0  0  0
 -8.340570 -1.192788  0.000000 F    0  0  0  0  0  0  0
 -7.198111 -2.383286  0.000000 F    0  0  0  0  0  0  0
 -6.167109 -2.218887  0.000000 F    0  0  0  0  0  0  0
 -5.681789 -4.520315  0.000000 C    0  0  0  0  0  0  0
 -5.681789 -5.345315  0.000000 C    0  0  0  0  0  0  0
 -4.967318 -5.757815  0.000000 C    0  0  0  0  0  0  0
 -4.252847 -5.345315  0.000000 C    0  0  0  0  0  0  0
 -4.252847 -4.520315  0.000000 C    0  0  0  0  0  0  0
 -4.967318 -4.107815  0.000000 C    0  0  0  0  0  0  0
  1.021339  2.492188  0.000000 C    0  0  0  0  0  0  0
  1.021339  1.667188  0.000000 C    0  0  0  0  0  0  0
  1.735810  1.254688  0.000000 C    0  0  0  0  0  0  0
  2.450281  1.667188  0.000000 C    0  0  0  0  0  0  0
  2.450281  2.492188  0.000000 C    0  0  0  0  0  0  0
  1.735810  2.904688  0.000000 C    0  0  0  0  0  0  0
 -4.753664  5.345315  0.000000 C    0  0  0  0  0  0  0
 -4.753664  4.520315  0.000000 C    0  0  0  0  0  0  0
 -4.039193  4.107815  0.000000 C    0  0  0  0  0  0  0
 -3.324722  4.520315  0.000000 C    0  0  0  0  0  0  0
 -3.324722  5.345315  0.000000 C    0  0  0  0  0  0  0
 -4.039193  5.757815  0.000000 C    0  0  0  0  0  0  0
 -5.468134  4.107815  0.000000 F    0  0  0  0  0  0  0
 -5.468134  5.757815  0.000000 F    0  0  0  0  0  0  0
 -4.039193  6.582815  0.000000 F    0  0  0  0  0  0  0
 -2.610250  5.757815  0.000000 F    0  0  0  0  0  0  0
 -2.610250  4.107815  0.000000 F    0  0  0  0  0  0  0
 -1.434096  4.279688  0.000000 F    0  0  0  0  0  0  0
 -2.863038  3.454688  0.000000 F    0  0  0  0  0  0  0
 -2.863038  1.804688  0.000000 F    0  0  0  0  0  0  0
 -0.005154  1.804688  0.000000 F    0  0  0  0  0  0  0
 -0.005154  3.454688  0.000000 F    0  0  0  0  0  0  0
  1.735810  3.729688  0.000000 F    0  0  0  0  0  0  0
  0.306868  2.904688  0.000000 F    0  0  0  0  0  0  0
  1.735810  0.429688  0.000000 F    0  0  0  0  0  0  0
  3.164751  1.254688  0.000000 F    0  0  0  0  0  0  0
  3.164751  2.904688  0.000000 F    0  0  0  0  0  0  0
  0.304332  0.740614  0.000000 F    0  0  0  0  0  0  0
  1.695374 -0.146801  0.000000 F    0  0  0  0  0  0  0
  1.622371 -1.795185  0.000000 F    0  0  0  0  0  0  0
  0.158326 -2.556154  0.000000 F    0  0  0  0  0  0  0
 -1.232715 -1.668740  0.000000 F    0  0  0  0  0  0  0
 -1.059611 -2.092923  0.000000 F    0  0  0  0  0  0  0
 -1.848978 -3.107401  0.000000 F    0  0  0  0  0  0  0
 -3.496710 -3.020918  0.000000 F    0  0  0  0  0  0  0
 -4.245680 -1.550699  0.000000 F    0  0  0  0  0  0  0
 -3.769321 -0.688546  0.000000 F    0  0  0  0  0  0  0
 -3.538376 -4.107815  0.000000 F    0  0  0  0  0  0  0
 -3.538376 -5.757815  0.000000 F    0  0  0  0  0  0  0
 -4.967318 -6.582815  0.000000 F    0  0  0  0  0  0  0
 -6.396260 -5.757815  0.000000 F    0  0  0  0  0  0  0
 -6.396260 -4.107815  0.000000 F    0  0  0  0  0  0  0
  1  2  1  0  0  0  0
  2  3  1  0  0  0  0
  3  4  2  0  0  0  0
  1  5  2  0  0  0  0
  1  6  2  0  0  0  0
  3  7  2  0  0  0  0
  3  8  1  0  0  0  0
  1  9  1  0  0  0  0
  8 10  1  0  0  0  0
  8 11  1  0  0  0  0
  8 12  1  0  0  0  0
  9 13  1  0  0  0  0
  9 14  1  0  0  0  0
  9 15  1  0  0  0  0
 16 17  1  0  0  0  0
 16 18  1  0  0  0  0
 16 19  1  0  0  0  0
 16 20  1  0  0  0  0
 23 17  1  0  0  0  0
 22 19  1  0  0  0  0
 21 19  1  0  0  0  0
 19 24  1  0  0  0  0
 25 20  1  0  0  0  0
 17 26  1  0  0  0  0
 18 27  1  0  0  0  0
 26 27  1  0  0  0  0
 24 25  1  0  0  0  0
 20 28  1  0  0  0  0
 29 30  2  0  0  0  0
 31 32  2  0  0  0  0
 33 23  2  0  0  0  0
 34 35  1  0  0  0  0
 36 37  1  0  0  0  0
 38 22  1  0  0  0  0
 39 40  1  0  0  0  0
 41 42  1  0  0  0  0
 43 21  1  0  0  0  0
 44 45  1  0  0  0  0
 46 47  1  0  0  0  0
 48 28  1  0  0  0  0
 50 51  1  0  0  0  0
 52 53  1  0  0  0  0
 54 49  1  0  0  0  0
 18 52  1  0  0  0  0
 50 49  2  0  0  0  0
 53 54  2  0  0  0  0
 51 52  2  0  0  0  0
 48 47  2  0  0  0  0
 45 46  2  0  0  0  0
 28 44  2  0  0  0  0
 43 42  2  0  0  0  0
 40 41  2  0  0  0  0
 21 39  2  0  0  0  0
 38 37  2  0  0  0  0
 36 35  2  0  0  0  0
 22 34  2  0  0  0  0
 33 32  1  0  0  0  0
 23 29  1  0  0  0  0
 30 31  1  0  0  0  0
 53 55  1  0  0  0  0
 54 56  1  0  0  0  0
 49 57  1  0  0  0  0
 50 58  1  0  0  0  0
 51 59  1  0  0  0  0
 29 60  1  0  0  0  0
 30 61  1  0  0  0  0
 31 62  1  0  0  0  0
 32 63  1  0  0  0  0
 33 64  1  0  0  0  0
 65 66  2  0  0  0  0
 66 67  1  0  0  0  0
 67 68  2  0  0  0  0
 68 69  1  0  0  0  0
 69 70  2  0  0  0  0
 70 65  1  0  0  0  0
 71 72  2  0  0  0  0
 72 73  1  0  0  0  0
 73 74  2  0  0  0  0
 74 75  1  0  0  0  0
 75 76  2  0  0  0  0
 76 71  1  0  0  0  0
 77 78  2  0  0  0  0
 78 79  1  0  0  0  0
 79 80  2  0  0  0  0
 80 81  1  0  0  0  0
 81 82  2  0  0  0  0
 82 77  1  0  0  0  0
 79 18  1  0  0  0  0
 20 72  1  0  0  0  0
 17 70  1  0  0  0  0
 78 83  1  0  0  0  0
 77 84  1  0  0  0  0
 82 85  1  0  0  0  0
 81 86  1  0  0  0  0
 80 87  1  0  0  0  0
 46 88  1  0  0  0  0
 47 89  1  0  0  0  0
 48 90  1  0  0  0  0
 44 91  1  0  0  0  0
 45 92  1  0  0  0  0
 76 93  1  0  0  0  0
 71 94  1  0  0  0  0
 73 95  1  0  0  0  0
 74 96  1  0  0  0  0
 75 97  1  0  0  0  0
 43 98  1  0  0  0  0
 42 99  1  0  0  0  0
 41100  1  0  0  0  0
 40101  1  0  0  0  0
 39102  1  0  0  0  0
 38103  1  0  0  0  0
 37104  1  0  0  0  0
 36105  1  0  0  0  0
 35106  1  0  0  0  0
 34107  1  0  0  0  0
 69108  1  0  0  0  0
 68109  1  0  0  0  0
 67110  1  0  0  0  0
 66111  1  0  0  0  0
 65112  1  0  0  0  0
M  END
> <NMREDATA_VERSION>
1.1

> <NMREDATA_LEVEL>
0

> <NMREDATA_SOLVENT>
THF-d8

> <NMREDATA_TEMPERATURE>
333

> <NMREDATA_FORMULA>
C54H265F46NO4P4RhS2

> <NMREDATA_SMILES>
FCS(=O)(=O)NS(=O)(=O)C(F)(F)F.[Rh].F.F.F.F.F.F.F.F.F.F.F.F.F.F.F.F.F.F.F.F.F.F.F.F.F.F.F.F.F.F.F.F.F.F.F.F.F.F.F.F.F.F.P.P.P.P.C.C.C.C.C.C.C.C.C.C.C.C.C.C.C.C.C.C.C.C.C.C.C.C.C.C.C.C.C.C.C.C.C.C.C.C.C.C.C.C.C.C.C.C.C.C.C.C.C.C.C.C

> <NMREDATA_ASSIGNMENT>
Rh16, -542.00, 16

> <NMREDATA_1D_103Rh>
-542.00, L=Rh16

$$$$
RhMan0925_0026.mol
  ChemDraw12142511502D

M  V30 COUNTS 32 32 0 0 0
  4.281013  0.635938  0.000000 S    0  0  0  0  0  0  0
  4.995484  1.048438  0.000000 N    0  5  0  0  0  0  0
  5.709955  0.635938  0.000000 S    0  0  0  0  0  0  0
  6.424426  1.048438  0.000000 O    0  0  0  0  0  0  0
  3.566542  1.048438  0.000000 O    0  0  0  0  0  0  0
  4.281013 -0.189062  0.000000 O    0  0  0  0  0  0  0
  5.709955 -0.189062  0.000000 O    0  0  0  0  0  0  0
  6.424426  0.223438  0.000000 C    0  0  0  0  0  0  0
  3.566542  0.223438  0.000000 C    0  0  0  0  0  0  0
  7.138896  0.635938  0.000000 F    0  0  0  0  0  0  0
  6.424426 -0.601562  0.000000 F    0  0  0  0  0  0  0
  7.138896 -0.189062  0.000000 F    0  0  0  0  0  0  0
  2.852071  0.635938  0.000000 F    0  0  0  0  0  0  0
  3.566542 -0.601562  0.000000 F    0  0  0  0  0  0  0
  2.852071 -0.189062  0.000000 F    0  0  0  0  0  0  0
 -3.350240  0.567188  0.000000 Rh   0  0  0  0  0  0  0
 -4.064712  0.154688  0.000000 P    0  0  0  0  0  0  0
 -4.064712  0.979688  0.000000 P    0  0  0  0  0  0  0
 -2.635769  0.154688  0.000000 P    0  0  0  0  0  0  0
 -2.635769  0.979688  0.000000 P    0  0  0  0  0  0  0
 -1.665864 -0.464063  0.000000 C    0  0  0  0  0  0  0
 -3.350240 -0.945313  0.000000 C    0  0  0  0  0  0  0
 -7.138896 -0.601563  0.000000 C    0  0  0  0  0  0  0
 -1.810769  0.154688  0.000000 C    0  0  0  0  0  0  0
 -1.838881  0.766162  0.000000 C    0  0  0  0  0  0  0
 -4.889712  0.154688  0.000000 C    0  0  0  0  0  0  0
 -5.034616  0.807813  0.000000 C    0  3  0  0  0  0  0
 -2.635769  1.804688  0.000000 C    0  0  0  0  0  0  0
 -6.451396  1.323438  0.000000 C    0  0  0  0  0  0  0
 -6.168991 -4.107815  0.000000 C    0  0  0  0  0  0  0
 -0.180335  1.667188  0.000000 C    0  0  0  0  0  0  0
 -5.240866  4.107815  0.000000 C    0  0  0  0  0  0  0
  1  2  1  0  0  0  0
  2  3  1  0  0  0  0
  3  4  2  0  0  0  0
  1  5  2  0  0  0  0
  1  6  2  0  0  0  0
  3  7  2  0  0  0  0
  3  8  1  0  0  0  0
  1  9  1  0  0  0  0
  8 10  1  0  0  0  0
  8 11  1  0  0  0  0
  8 12  1  0  0  0  0
  9 13  1  0  0  0  0
  9 14  1  0  0  0  0
  9 15  1  0  0  0  0
 16 17  1  0  0  0  0
 16 18  1  0  0  0  0
 16 19  1  0  0  0  0
 16 20  1  0  0  0  0
 23 17  1  0  0  0  0
 22 19  1  0  0  0  0
 21 19  1  0  0  0  0
 19 24  1  0  0  0  0
 25 20  1  0  0  0  0
 17 26  1  0  0  0  0
 18 27  1  0  0  0  0
 26 27  1  0  0  0  0
 24 25  1  0  0  0  0
 20 28  1  0  0  0  0
 18 29  1  0  0  0  0
 32 18  1  0  0  0  0
 20 31  1  0  0  0  0
 17 30  1  0  0  0  0
M  END
> <NMREDATA_VERSION>
1.1

> <NMREDATA_LEVEL>
0

> <NMREDATA_SOLVENT>
THF-d8

> <NMREDATA_TEMPERATURE>
298

> <NMREDATA_FORMULA>
C14H37F6NO4P4RhS2

> <NMREDATA_SMILES>
FC(S(=O)(=O)NS(=O)(=O)C(F)(F)F)(F)F.CP1(C)CCP([Rh]21P(C)(C)CCP2(C)C)(C)C

> <NMREDATA_ASSIGNMENT>
Rh16, -1104.00, 16

> <NMREDATA_1D_103Rh>
-1104.00, L=Rh16

$$$$

  ACD/LABS12142511512D

 56 64  0  0  0  0  0  0  0  0  2 V2000
   15.6848   -8.7755    0.0000 Rh   0  0  0  0  0  0  0  0  0  0  0  0
   14.5330   -9.4405    0.0000 P    0  0  0  0  0  5  0  0  0  0  0  0
   14.5330   -8.1105    0.0000 P    0  0  0  0  0  5  0  0  0  0  0  0
   16.8366   -9.4405    0.0000 P    0  0  0  0  0  5  0  0  0  0  0  0
   16.8366   -8.1105    0.0000 P    0  0  0  0  0  5  0  0  0  0  0  0
   12.8585   -8.8310    0.0000 C    0  0  0  0  0  0  0  0  0  0  0  0
   19.0098   -8.6647    0.0000 C    0  0  0  0  0  0  0  0  0  0  0  0
   10.7647   -5.3397    0.0000 C    0  0  0  0  0  0  0  0  0  0  0  0
   10.7647   -6.6697    0.0000 C    0  0  0  0  0  0  0  0  0  0  0  0
   11.9165   -7.3347    0.0000 C    0  0  0  0  0  0  0  0  0  0  0  0
   13.0683   -6.6697    0.0000 C    0  0  0  0  0  0  0  0  0  0  0  0
   13.0683   -5.3397    0.0000 C    0  0  0  0  0  0  0  0  0  0  0  0
   11.9165   -4.6747    0.0000 C    0  5  0  0  0  0  0  0  0  0  0  0
   13.8126   -4.0651    0.0000 C    0  0  0  0  0  0  0  0  0  0  0  0
   13.8126   -5.3951    0.0000 C    0  0  0  0  0  0  0  0  0  0  0  0
   14.9644   -6.0601    0.0000 C    0  0  0  0  0  0  0  0  0  0  0  0
   16.1162   -5.3951    0.0000 C    0  0  0  0  0  0  0  0  0  0  0  0
   16.1162   -4.0651    0.0000 C    0  0  0  0  0  0  0  0  0  0  0  0
   14.9644   -3.4001    0.0000 C    0  0  0  0  0  0  0  0  0  0  0  0
   17.0822   -4.7301    0.0000 C    0  0  0  0  0  0  0  0  0  0  0  0
   17.0822   -6.0601    0.0000 C    0  0  0  0  0  0  0  0  0  0  0  0
   18.2340   -6.7251    0.0000 C    0  0  0  0  0  0  0  0  0  0  0  0
   19.3858   -6.0601    0.0000 C    0  0  0  0  0  0  0  0  0  0  0  0
   19.3858   -4.7301    0.0000 C    0  0  0  0  0  0  0  0  0  0  0  0
   18.2340   -4.0651    0.0000 C    0  0  0  0  0  0  0  0  0  0  0  0
   19.2988   -6.4480    0.0000 C    0  0  0  0  0  0  0  0  0  0  0  0
   19.2988   -7.7780    0.0000 C    0  0  0  0  0  0  0  0  0  0  0  0
   20.4506   -8.4430    0.0000 C    0  0  0  0  0  0  0  0  0  0  0  0
   21.6025   -7.7780    0.0000 C    0  0  0  0  0  0  0  0  0  0  0  0
   21.6025   -6.4480    0.0000 C    0  0  0  0  0  0  0  0  0  0  0  0
   20.4506   -5.7830    0.0000 C    0  0  0  0  0  0  0  0  0  0  0  0
   17.2484  -11.1030    0.0000 C    0  0  0  0  0  0  0  0  0  0  0  0
   17.2484  -12.4330    0.0000 C    0  0  0  0  0  0  0  0  0  0  0  0
   18.4002  -13.0980    0.0000 C    0  0  0  0  0  0  0  0  0  0  0  0
   19.5520  -12.4330    0.0000 C    0  0  0  0  0  0  0  0  0  0  0  0
   19.5520  -11.1030    0.0000 C    0  0  0  0  0  0  0  0  0  0  0  0
   18.4002  -10.4380    0.0000 C    0  0  0  0  0  0  0  0  0  0  0  0
   14.5330  -11.8789    0.0000 C    0  0  0  0  0  0  0  0  0  0  0  0
   14.5330  -13.2089    0.0000 C    0  0  0  0  0  0  0  0  0  0  0  0
   15.6848  -13.8739    0.0000 C    0  0  0  0  0  0  0  0  0  0  0  0
   16.8366  -13.2089    0.0000 C    0  0  0  0  0  0  0  0  0  0  0  0
   16.8366  -11.8789    0.0000 C    0  0  0  0  0  0  0  0  0  0  0  0
   15.6848  -11.2139    0.0000 C    0  0  0  0  0  0  0  0  0  0  0  0
   11.0971  -11.8789    0.0000 C    0  0  0  0  0  0  0  0  0  0  0  0
   11.0971  -13.2089    0.0000 C    0  0  0  0  0  0  0  0  0  0  0  0
   12.2490  -13.8739    0.0000 C    0  0  0  0  0  0  0  0  0  0  0  0
   13.4008  -13.2089    0.0000 C    0  0  0  0  0  0  0  0  0  0  0  0
   13.4008  -11.8789    0.0000 C    0  0  0  0  0  0  0  0  0  0  0  0
   12.2490  -11.2139    0.0000 C    0  0  0  0  0  0  0  0  0  0  0  0
    7.2734  -10.6597    0.0000 C    0  0  0  0  0  0  0  0  0  0  0  0
    7.2734  -11.9897    0.0000 C    0  0  0  0  0  0  0  0  0  0  0  0
    8.4252  -12.6547    0.0000 C    0  0  0  0  0  0  0  0  0  0  0  0
    9.5770  -11.9897    0.0000 C    0  0  0  0  0  0  0  0  0  0  0  0
    9.5770  -10.6597    0.0000 C    0  0  0  0  0  0  0  0  0  0  0  0
    8.4252   -9.9947    0.0000 C    0  0  0  0  0  0  0  0  0  0  0  0
   26.0071   -9.0216    0.0000 Na   0  3  0  0  0  0  0  0  0  0  0  0
  1  2  1  0  0  0  0
  1  3  1  0  0  0  0
  1  4  1  0  0  0  0
  1  5  1  0  0  0  0
  2  6  1  0  0  0  0
  3  6  1  0  0  0  0
  4  7  1  0  0  0  0
  5  7  1  0  0  0  0
  8  9  2  0  0  0  0
  9 10  1  0  0  0  0
 10 11  2  0  0  0  0
 11 12  1  0  0  0  0
 12 13  2  0  0  0  0
 13  8  1  0  0  0  0
 14 15  2  0  0  0  0
 15 16  1  0  0  0  0
 16 17  2  0  0  0  0
 17 18  1  0  0  0  0
 18 19  2  0  0  0  0
 19 14  1  0  0  0  0
 20 21  2  0  0  0  0
 21 22  1  0  0  0  0
 22 23  2  0  0  0  0
 23 24  1  0  0  0  0
 24 25  2  0  0  0  0
 25 20  1  0  0  0  0
 26 27  2  0  0  0  0
 27 28  1  0  0  0  0
 28 29  2  0  0  0  0
 29 30  1  0  0  0  0
 30 31  2  0  0  0  0
 31 26  1  0  0  0  0
 32 33  2  0  0  0  0
 33 34  1  0  0  0  0
 34 35  2  0  0  0  0
 35 36  1  0  0  0  0
 36 37  2  0  0  0  0
 37 32  1  0  0  0  0
 38 39  2  0  0  0  0
 39 40  1  0  0  0  0
 40 41  2  0  0  0  0
 41 42  1  0  0  0  0
 42 43  2  0  0  0  0
 43 38  1  0  0  0  0
 44 45  2  0  0  0  0
 45 46  1  0  0  0  0
 46 47  2  0  0  0  0
 47 48  1  0  0  0  0
 48 49  2  0  0  0  0
 49 44  1  0  0  0  0
 50 51  2  0  0  0  0
 51 52  1  0  0  0  0
 52 53  2  0  0  0  0
 53 54  1  0  0  0  0
 54 55  2  0  0  0  0
 55 50  1  0  0  0  0
 54  2  1  0  0  0  0
 49  2  1  0  0  0  0
 43  4  1  0  0  0  0
 37  4  1  0  0  0  0
 22  5  1  0  0  0  0
 27  5  1  0  0  0  0
 16  3  1  0  0  0  0
 11  3  1  0  0  0  0
M  END
> <NMREDATA_VERSION>
1.1

> <NMREDATA_LEVEL>
0

> <NMREDATA_SOLVENT>
THF-d8

> <NMREDATA_TEMPERATURE>
298

> <NMREDATA_FORMULA>
C50H49NaP4Rh

> <NMREDATA_SMILES>
c1ccc(cc1)P1(CP([Rh]21P(CP2(c1ccccc1)c1ccccc1)(c1ccccc1)c1ccccc1)(c1ccccc1)c1ccccc1)c1ccccc1.[NaH]

> <NMREDATA_ASSIGNMENT>
Rh1, -313.00, 1

> <NMREDATA_1D_103Rh>
-313.00, L=Rh1

$$$$

  ACD/LABS12142511522D

 58 66  0  0  0  0  0  0  0  0  2 V2000
   15.6848   -8.7755    0.0000 Rh   0  0  0  0  0  0  0  0  0  0  0  0
   14.5330   -9.4405    0.0000 P    0  0  0  0  0  5  0  0  0  0  0  0
   14.5330   -8.1105    0.0000 P    0  0  0  0  0  5  0  0  0  0  0  0
   16.8366   -9.4405    0.0000 P    0  0  0  0  0  5  0  0  0  0  0  0
   16.8366   -8.1105    0.0000 P    0  0  0  0  0  5  0  0  0  0  0  0
   10.7647   -5.3397    0.0000 C    0  0  0  0  0  0  0  0  0  0  0  0
   10.7647   -6.6697    0.0000 C    0  0  0  0  0  0  0  0  0  0  0  0
   11.9165   -7.3347    0.0000 C    0  0  0  0  0  0  0  0  0  0  0  0
   13.0683   -6.6697    0.0000 C    0  0  0  0  0  0  0  0  0  0  0  0
   13.0683   -5.3397    0.0000 C    0  0  0  0  0  0  0  0  0  0  0  0
   11.9165   -4.6747    0.0000 C    0  5  0  0  0  0  0  0  0  0  0  0
   13.8126   -4.0651    0.0000 C    0  0  0  0  0  0  0  0  0  0  0  0
   13.8126   -5.3951    0.0000 C    0  0  0  0  0  0  0  0  0  0  0  0
   14.9644   -6.0601    0.0000 C    0  0  0  0  0  0  0  0  0  0  0  0
   16.1162   -5.3951    0.0000 C    0  0  0  0  0  0  0  0  0  0  0  0
   16.1162   -4.0651    0.0000 C    0  0  0  0  0  0  0  0  0  0  0  0
   14.9644   -3.4001    0.0000 C    0  0  0  0  0  0  0  0  0  0  0  0
   17.0822   -4.7301    0.0000 C    0  0  0  0  0  0  0  0  0  0  0  0
   17.0822   -6.0601    0.0000 C    0  0  0  0  0  0  0  0  0  0  0  0
   18.2340   -6.7251    0.0000 C    0  0  0  0  0  0  0  0  0  0  0  0
   19.3858   -6.0601    0.0000 C    0  0  0  0  0  0  0  0  0  0  0  0
   19.3858   -4.7301    0.0000 C    0  0  0  0  0  0  0  0  0  0  0  0
   18.2340   -4.0651    0.0000 C    0  0  0  0  0  0  0  0  0  0  0  0
   19.2988   -6.4480    0.0000 C    0  0  0  0  0  0  0  0  0  0  0  0
   19.2988   -7.7780    0.0000 C    0  0  0  0  0  0  0  0  0  0  0  0
   20.4506   -8.4430    0.0000 C    0  0  0  0  0  0  0  0  0  0  0  0
   21.6025   -7.7780    0.0000 C    0  0  0  0  0  0  0  0  0  0  0  0
   21.6025   -6.4480    0.0000 C    0  0  0  0  0  0  0  0  0  0  0  0
   20.4506   -5.7830    0.0000 C    0  0  0  0  0  0  0  0  0  0  0  0
   17.2484  -11.1030    0.0000 C    0  0  0  0  0  0  0  0  0  0  0  0
   17.2484  -12.4330    0.0000 C    0  0  0  0  0  0  0  0  0  0  0  0
   18.4002  -13.0980    0.0000 C    0  0  0  0  0  0  0  0  0  0  0  0
   19.5520  -12.4330    0.0000 C    0  0  0  0  0  0  0  0  0  0  0  0
   19.5520  -11.1030    0.0000 C    0  0  0  0  0  0  0  0  0  0  0  0
   18.4002  -10.4380    0.0000 C    0  0  0  0  0  0  0  0  0  0  0  0
   14.5330  -11.8789    0.0000 C    0  0  0  0  0  0  0  0  0  0  0  0
   14.5330  -13.2089    0.0000 C    0  0  0  0  0  0  0  0  0  0  0  0
   15.6848  -13.8739    0.0000 C    0  0  0  0  0  0  0  0  0  0  0  0
   16.8366  -13.2089    0.0000 C    0  0  0  0  0  0  0  0  0  0  0  0
   16.8366  -11.8789    0.0000 C    0  0  0  0  0  0  0  0  0  0  0  0
   15.6848  -11.2139    0.0000 C    0  0  0  0  0  0  0  0  0  0  0  0
   11.0971  -11.8789    0.0000 C    0  0  0  0  0  0  0  0  0  0  0  0
   11.0971  -13.2089    0.0000 C    0  0  0  0  0  0  0  0  0  0  0  0
   12.2490  -13.8739    0.0000 C    0  0  0  0  0  0  0  0  0  0  0  0
   13.4008  -13.2089    0.0000 C    0  0  0  0  0  0  0  0  0  0  0  0
   13.4008  -11.8789    0.0000 C    0  0  0  0  0  0  0  0  0  0  0  0
   12.2490  -11.2139    0.0000 C    0  0  0  0  0  0  0  0  0  0  0  0
    7.2734  -10.6597    0.0000 C    0  0  0  0  0  0  0  0  0  0  0  0
    7.2734  -11.9897    0.0000 C    0  0  0  0  0  0  0  0  0  0  0  0
    8.4252  -12.6547    0.0000 C    0  0  0  0  0  0  0  0  0  0  0  0
    9.5770  -11.9897    0.0000 C    0  0  0  0  0  0  0  0  0  0  0  0
    9.5770  -10.6597    0.0000 C    0  0  0  0  0  0  0  0  0  0  0  0
    8.4252   -9.9947    0.0000 C    0  0  0  0  0  0  0  0  0  0  0  0
   19.1761   -9.4405    0.0000 C    0  0  0  0  0  0  0  0  0  0  0  0
   19.0652   -8.4430    0.0000 C    0  0  0  0  0  0  0  0  0  0  0  0
   12.4152   -9.1634    0.0000 C    0  0  0  0  0  0  0  0  0  0  0  0
   12.5260   -7.9997    0.0000 C    0  0  0  0  0  0  0  0  0  0  0  0
   24.2765   -8.9414    0.0000 Na   0  3  0  0  0  0  0  0  0  0  0  0
  1  2  1  0  0  0  0
  1  3  1  0  0  0  0
  1  4  1  0  0  0  0
  1  5  1  0  0  0  0
  6  7  2  0  0  0  0
  7  8  1  0  0  0  0
  8  9  2  0  0  0  0
  9 10  1  0  0  0  0
 10 11  2  0  0  0  0
 11  6  1  0  0  0  0
 12 13  2  0  0  0  0
 13 14  1  0  0  0  0
 14 15  2  0  0  0  0
 15 16  1  0  0  0  0
 16 17  2  0  0  0  0
 17 12  1  0  0  0  0
 18 19  2  0  0  0  0
 19 20  1  0  0  0  0
 20 21  2  0  0  0  0
 21 22  1  0  0  0  0
 22 23  2  0  0  0  0
 23 18  1  0  0  0  0
 24 25  2  0  0  0  0
 25 26  1  0  0  0  0
 26 27  2  0  0  0  0
 27 28  1  0  0  0  0
 28 29  2  0  0  0  0
 29 24  1  0  0  0  0
 30 31  2  0  0  0  0
 31 32  1  0  0  0  0
 32 33  2  0  0  0  0
 33 34  1  0  0  0  0
 34 35  2  0  0  0  0
 35 30  1  0  0  0  0
 36 37  2  0  0  0  0
 37 38  1  0  0  0  0
 38 39  2  0  0  0  0
 39 40  1  0  0  0  0
 40 41  2  0  0  0  0
 41 36  1  0  0  0  0
 42 43  2  0  0  0  0
 43 44  1  0  0  0  0
 44 45  2  0  0  0  0
 45 46  1  0  0  0  0
 46 47  2  0  0  0  0
 47 42  1  0  0  0  0
 48 49  2  0  0  0  0
 49 50  1  0  0  0  0
 50 51  2  0  0  0  0
 51 52  1  0  0  0  0
 52 53  2  0  0  0  0
 53 48  1  0  0  0  0
 52  2  1  0  0  0  0
 47  2  1  0  0  0  0
 41  4  1  0  0  0  0
 35  4  1  0  0  0  0
 20  5  1  0  0  0  0
 25  5  1  0  0  0  0
 14  3  1  0  0  0  0
  9  3  1  0  0  0  0
  4 54  1  0  0  0  0
 54 55  1  0  0  0  0
 55  5  1  0  0  0  0
  2 56  1  0  0  0  0
  3 57  1  0  0  0  0
 56 57  1  0  0  0  0
M  END
> <NMREDATA_VERSION>
1.1

> <NMREDATA_LEVEL>
0

> <NMREDATA_SOLVENT>
THF-d8

> <NMREDATA_TEMPERATURE>
298

> <NMREDATA_FORMULA>
C52H53NaP4Rh

> <NMREDATA_SMILES>
c1ccc(cc1)P1(CCP([Rh]21P(CCP2(c1ccccc1)c1ccccc1)(c1ccccc1)c1ccccc1)(c1ccccc1)c1ccccc1)c1ccccc1.[NaH]

> <NMREDATA_ASSIGNMENT>
Rh1, -928.00, 1

> <NMREDATA_1D_103Rh>
-928.00, L=Rh1

$$$$

  ACD/LABS12142511532D

 60 68  0  0  0  0  0  0  0  0  2 V2000
   15.6848   -8.7755    0.0000 Rh   0  0  0  0  0  0  0  0  0  0  0  0
   14.5330   -9.4405    0.0000 P    0  0  0  0  0  5  0  0  0  0  0  0
   14.5330   -8.1105    0.0000 P    0  0  0  0  0  5  0  0  0  0  0  0
   16.8366   -9.4405    0.0000 P    0  0  0  0  0  5  0  0  0  0  0  0
   16.8366   -8.1105    0.0000 P    0  0  0  0  0  5  0  0  0  0  0  0
   10.7647   -5.3397    0.0000 C    0  0  0  0  0  0  0  0  0  0  0  0
   10.7647   -6.6697    0.0000 C    0  0  0  0  0  0  0  0  0  0  0  0
   11.9165   -7.3347    0.0000 C    0  0  0  0  0  0  0  0  0  0  0  0
   13.0683   -6.6697    0.0000 C    0  0  0  0  0  0  0  0  0  0  0  0
   13.0683   -5.3397    0.0000 C    0  0  0  0  0  0  0  0  0  0  0  0
   11.9165   -4.6747    0.0000 C    0  5  0  0  0  0  0  0  0  0  0  0
   13.8126   -4.0651    0.0000 C    0  0  0  0  0  0  0  0  0  0  0  0
   13.8126   -5.3951    0.0000 C    0  0  0  0  0  0  0  0  0  0  0  0
   14.9644   -6.0601    0.0000 C    0  0  0  0  0  0  0  0  0  0  0  0
   16.1162   -5.3951    0.0000 C    0  0  0  0  0  0  0  0  0  0  0  0
   16.1162   -4.0651    0.0000 C    0  0  0  0  0  0  0  0  0  0  0  0
   14.9644   -3.4001    0.0000 C    0  0  0  0  0  0  0  0  0  0  0  0
   17.0822   -4.7301    0.0000 C    0  0  0  0  0  0  0  0  0  0  0  0
   17.0822   -6.0601    0.0000 C    0  0  0  0  0  0  0  0  0  0  0  0
   18.2340   -6.7251    0.0000 C    0  0  0  0  0  0  0  0  0  0  0  0
   19.3858   -6.0601    0.0000 C    0  0  0  0  0  0  0  0  0  0  0  0
   19.3858   -4.7301    0.0000 C    0  0  0  0  0  0  0  0  0  0  0  0
   18.2340   -4.0651    0.0000 C    0  0  0  0  0  0  0  0  0  0  0  0
   19.2988   -6.4480    0.0000 C    0  0  0  0  0  0  0  0  0  0  0  0
   19.2988   -7.7780    0.0000 C    0  0  0  0  0  0  0  0  0  0  0  0
   20.4506   -8.4430    0.0000 C    0  0  0  0  0  0  0  0  0  0  0  0
   21.6025   -7.7780    0.0000 C    0  0  0  0  0  0  0  0  0  0  0  0
   21.6025   -6.4480    0.0000 C    0  0  0  0  0  0  0  0  0  0  0  0
   20.4506   -5.7830    0.0000 C    0  0  0  0  0  0  0  0  0  0  0  0
   17.2484  -11.1030    0.0000 C    0  0  0  0  0  0  0  0  0  0  0  0
   17.2484  -12.4330    0.0000 C    0  0  0  0  0  0  0  0  0  0  0  0
   18.4002  -13.0980    0.0000 C    0  0  0  0  0  0  0  0  0  0  0  0
   19.5520  -12.4330    0.0000 C    0  0  0  0  0  0  0  0  0  0  0  0
   19.5520  -11.1030    0.0000 C    0  0  0  0  0  0  0  0  0  0  0  0
   18.4002  -10.4380    0.0000 C    0  0  0  0  0  0  0  0  0  0  0  0
   14.5330  -11.8789    0.0000 C    0  0  0  0  0  0  0  0  0  0  0  0
   14.5330  -13.2089    0.0000 C    0  0  0  0  0  0  0  0  0  0  0  0
   15.6848  -13.8739    0.0000 C    0  0  0  0  0  0  0  0  0  0  0  0
   16.8366  -13.2089    0.0000 C    0  0  0  0  0  0  0  0  0  0  0  0
   16.8366  -11.8789    0.0000 C    0  0  0  0  0  0  0  0  0  0  0  0
   15.6848  -11.2139    0.0000 C    0  0  0  0  0  0  0  0  0  0  0  0
   11.0971  -11.8789    0.0000 C    0  0  0  0  0  0  0  0  0  0  0  0
   11.0971  -13.2089    0.0000 C    0  0  0  0  0  0  0  0  0  0  0  0
   12.2490  -13.8739    0.0000 C    0  0  0  0  0  0  0  0  0  0  0  0
   13.4008  -13.2089    0.0000 C    0  0  0  0  0  0  0  0  0  0  0  0
   13.4008  -11.8789    0.0000 C    0  0  0  0  0  0  0  0  0  0  0  0
   12.2490  -11.2139    0.0000 C    0  0  0  0  0  0  0  0  0  0  0  0
    7.2734  -10.6597    0.0000 C    0  0  0  0  0  0  0  0  0  0  0  0
    7.2734  -11.9897    0.0000 C    0  0  0  0  0  0  0  0  0  0  0  0
    8.4252  -12.6547    0.0000 C    0  0  0  0  0  0  0  0  0  0  0  0
    9.5770  -11.9897    0.0000 C    0  0  0  0  0  0  0  0  0  0  0  0
    9.5770  -10.6597    0.0000 C    0  0  0  0  0  0  0  0  0  0  0  0
    8.4252   -9.9947    0.0000 C    0  0  0  0  0  0  0  0  0  0  0  0
   19.1761   -9.6622    0.0000 C    0  0  0  0  0  0  0  0  0  0  0  0
   19.0652   -8.4430    0.0000 C    0  0  0  0  0  0  0  0  0  0  0  0
   12.4152   -9.1634    0.0000 C    0  0  0  0  0  0  0  0  0  0  0  0
   12.5260   -7.9997    0.0000 C    0  0  0  0  0  0  0  0  0  0  0  0
   11.2634   -8.4984    0.0000 C    0  0  0  0  0  0  0  0  0  0  0  0
   20.2290   -9.1634    0.0000 C    0  0  0  0  0  0  0  0  0  0  0  0
   24.2765   -8.8133    0.0000 Na   0  3  0  0  0  0  0  0  0  0  0  0
  1  2  1  0  0  0  0
  1  3  1  0  0  0  0
  1  4  1  0  0  0  0
  1  5  1  0  0  0  0
  6  7  2  0  0  0  0
  7  8  1  0  0  0  0
  8  9  2  0  0  0  0
  9 10  1  0  0  0  0
 10 11  2  0  0  0  0
 11  6  1  0  0  0  0
 12 13  2  0  0  0  0
 13 14  1  0  0  0  0
 14 15  2  0  0  0  0
 15 16  1  0  0  0  0
 16 17  2  0  0  0  0
 17 12  1  0  0  0  0
 18 19  2  0  0  0  0
 19 20  1  0  0  0  0
 20 21  2  0  0  0  0
 21 22  1  0  0  0  0
 22 23  2  0  0  0  0
 23 18  1  0  0  0  0
 24 25  2  0  0  0  0
 25 26  1  0  0  0  0
 26 27  2  0  0  0  0
 27 28  1  0  0  0  0
 28 29  2  0  0  0  0
 29 24  1  0  0  0  0
 30 31  2  0  0  0  0
 31 32  1  0  0  0  0
 32 33  2  0  0  0  0
 33 34  1  0  0  0  0
 34 35  2  0  0  0  0
 35 30  1  0  0  0  0
 36 37  2  0  0  0  0
 37 38  1  0  0  0  0
 38 39  2  0  0  0  0
 39 40  1  0  0  0  0
 40 41  2  0  0  0  0
 41 36  1  0  0  0  0
 42 43  2  0  0  0  0
 43 44  1  0  0  0  0
 44 45  2  0  0  0  0
 45 46  1  0  0  0  0
 46 47  2  0  0  0  0
 47 42  1  0  0  0  0
 48 49  2  0  0  0  0
 49 50  1  0  0  0  0
 50 51  2  0  0  0  0
 51 52  1  0  0  0  0
 52 53  2  0  0  0  0
 53 48  1  0  0  0  0
 52  2  1  0  0  0  0
 47  2  1  0  0  0  0
 41  4  1  0  0  0  0
 35  4  1  0  0  0  0
 20  5  1  0  0  0  0
 25  5  1  0  0  0  0
 14  3  1  0  0  0  0
  9  3  1  0  0  0  0
  4 54  1  0  0  0  0
 55  5  1  0  0  0  0
  2 56  1  0  0  0  0
  3 57  1  0  0  0  0
 56 58  1  0  0  0  0
 57 58  1  0  0  0  0
 54 59  1  0  0  0  0
 59 55  1  0  0  0  0
M  END
> <NMREDATA_VERSION>
1.1

> <NMREDATA_LEVEL>
0

> <NMREDATA_SOLVENT>
THF-d8

> <NMREDATA_TEMPERATURE>
298

> <NMREDATA_FORMULA>
C54H57NaP4Rh

> <NMREDATA_SMILES>
C1CP(c2ccccc2)(c2ccccc2)[Rh]2(P(C1)(c1ccccc1)c1ccccc1)P(CCCP2(c1ccccc1)c1ccccc1)(c1ccccc1)c1ccccc1.[NaH]

> <NMREDATA_ASSIGNMENT>
Rh1, -502.00, 1

> <NMREDATA_1D_103Rh>
-502.00, L=Rh1

$$$$

  ACD/LABS12142511542D

 62 70  0  0  0  0  0  0  0  0  2 V2000
   15.6848   -8.7755    0.0000 Rh   0  0  0  0  0  0  0  0  0  0  0  0
   14.5330   -9.4405    0.0000 P    0  0  0  0  0  5  0  0  0  0  0  0
   14.5330   -8.1105    0.0000 P    0  0  0  0  0  5  0  0  0  0  0  0
   16.8366   -9.4405    0.0000 P    0  0  0  0  0  5  0  0  0  0  0  0
   16.8366   -8.1105    0.0000 P    0  0  0  0  0  5  0  0  0  0  0  0
   10.7647   -5.3397    0.0000 C    0  0  0  0  0  0  0  0  0  0  0  0
   10.7647   -6.6697    0.0000 C    0  0  0  0  0  0  0  0  0  0  0  0
   11.9165   -7.3347    0.0000 C    0  0  0  0  0  0  0  0  0  0  0  0
   13.0683   -6.6697    0.0000 C    0  0  0  0  0  0  0  0  0  0  0  0
   13.0683   -5.3397    0.0000 C    0  0  0  0  0  0  0  0  0  0  0  0
   11.9165   -4.6747    0.0000 C    0  5  0  0  0  0  0  0  0  0  0  0
   13.8126   -4.0651    0.0000 C    0  0  0  0  0  0  0  0  0  0  0  0
   13.8126   -5.3951    0.0000 C    0  0  0  0  0  0  0  0  0  0  0  0
   14.9644   -6.0601    0.0000 C    0  0  0  0  0  0  0  0  0  0  0  0
   16.1162   -5.3951    0.0000 C    0  0  0  0  0  0  0  0  0  0  0  0
   16.1162   -4.0651    0.0000 C    0  0  0  0  0  0  0  0  0  0  0  0
   14.9644   -3.4001    0.0000 C    0  0  0  0  0  0  0  0  0  0  0  0
   17.0822   -4.7301    0.0000 C    0  0  0  0  0  0  0  0  0  0  0  0
   17.0822   -6.0601    0.0000 C    0  0  0  0  0  0  0  0  0  0  0  0
   18.2340   -6.7251    0.0000 C    0  0  0  0  0  0  0  0  0  0  0  0
   19.3858   -6.0601    0.0000 C    0  0  0  0  0  0  0  0  0  0  0  0
   19.3858   -4.7301    0.0000 C    0  0  0  0  0  0  0  0  0  0  0  0
   18.2340   -4.0651    0.0000 C    0  0  0  0  0  0  0  0  0  0  0  0
   19.2988   -6.4480    0.0000 C    0  0  0  0  0  0  0  0  0  0  0  0
   19.2988   -7.7780    0.0000 C    0  0  0  0  0  0  0  0  0  0  0  0
   20.4506   -8.4430    0.0000 C    0  0  0  0  0  0  0  0  0  0  0  0
   21.6025   -7.7780    0.0000 C    0  0  0  0  0  0  0  0  0  0  0  0
   21.6025   -6.4480    0.0000 C    0  0  0  0  0  0  0  0  0  0  0  0
   20.4506   -5.7830    0.0000 C    0  0  0  0  0  0  0  0  0  0  0  0
   17.2484  -11.1030    0.0000 C    0  0  0  0  0  0  0  0  0  0  0  0
   17.2484  -12.4330    0.0000 C    0  0  0  0  0  0  0  0  0  0  0  0
   18.4002  -13.0980    0.0000 C    0  0  0  0  0  0  0  0  0  0  0  0
   19.5520  -12.4330    0.0000 C    0  0  0  0  0  0  0  0  0  0  0  0
   19.5520  -11.1030    0.0000 C    0  0  0  0  0  0  0  0  0  0  0  0
   18.4002  -10.4380    0.0000 C    0  0  0  0  0  0  0  0  0  0  0  0
   14.5330  -11.8789    0.0000 C    0  0  0  0  0  0  0  0  0  0  0  0
   14.5330  -13.2089    0.0000 C    0  0  0  0  0  0  0  0  0  0  0  0
   15.6848  -13.8739    0.0000 C    0  0  0  0  0  0  0  0  0  0  0  0
   16.8366  -13.2089    0.0000 C    0  0  0  0  0  0  0  0  0  0  0  0
   16.8366  -11.8789    0.0000 C    0  0  0  0  0  0  0  0  0  0  0  0
   15.6848  -11.2139    0.0000 C    0  0  0  0  0  0  0  0  0  0  0  0
   11.0971  -11.8789    0.0000 C    0  0  0  0  0  0  0  0  0  0  0  0
   11.0971  -13.2089    0.0000 C    0  0  0  0  0  0  0  0  0  0  0  0
   12.2490  -13.8739    0.0000 C    0  0  0  0  0  0  0  0  0  0  0  0
   13.4008  -13.2089    0.0000 C    0  0  0  0  0  0  0  0  0  0  0  0
   13.4008  -11.8789    0.0000 C    0  0  0  0  0  0  0  0  0  0  0  0
   12.2490  -11.2139    0.0000 C    0  0  0  0  0  0  0  0  0  0  0  0
    7.2734  -10.6597    0.0000 C    0  0  0  0  0  0  0  0  0  0  0  0
    7.2734  -11.9897    0.0000 C    0  0  0  0  0  0  0  0  0  0  0  0
    8.4252  -12.6547    0.0000 C    0  0  0  0  0  0  0  0  0  0  0  0
    9.5770  -11.9897    0.0000 C    0  0  0  0  0  0  0  0  0  0  0  0
    9.5770  -10.6597    0.0000 C    0  0  0  0  0  0  0  0  0  0  0  0
    8.4252   -9.9947    0.0000 C    0  0  0  0  0  0  0  0  0  0  0  0
   21.0602  -10.1055    0.0000 C    0  0  0  0  0  0  0  0  0  0  0  0
   18.8990   -9.1634    0.0000 C    0  0  0  0  0  0  0  0  0  0  0  0
   10.8081   -9.3851    0.0000 C    0  0  0  0  0  0  0  0  0  0  0  0
   12.5260   -7.9997    0.0000 C    0  0  0  0  0  0  0  0  0  0  0  0
   10.4756   -8.2214    0.0000 C    0  0  0  0  0  0  0  0  0  0  0  0
   22.2120   -9.4405    0.0000 C    0  0  0  0  0  0  0  0  0  0  0  0
   11.8610   -8.4984    0.0000 C    0  0  0  0  0  0  0  0  0  0  0  0
   21.7252   -8.8864    0.0000 C    0  0  0  0  0  0  0  0  0  0  0  0
   24.5649   -9.4542    0.0000 Na   0  3  0  0  0  0  0  0  0  0  0  0
  1  2  1  0  0  0  0
  1  3  1  0  0  0  0
  1  4  1  0  0  0  0
  1  5  1  0  0  0  0
  6  7  2  0  0  0  0
  7  8  1  0  0  0  0
  8  9  2  0  0  0  0
  9 10  1  0  0  0  0
 10 11  2  0  0  0  0
 11  6  1  0  0  0  0
 12 13  2  0  0  0  0
 13 14  1  0  0  0  0
 14 15  2  0  0  0  0
 15 16  1  0  0  0  0
 16 17  2  0  0  0  0
 17 12  1  0  0  0  0
 18 19  2  0  0  0  0
 19 20  1  0  0  0  0
 20 21  2  0  0  0  0
 21 22  1  0  0  0  0
 22 23  2  0  0  0  0
 23 18  1  0  0  0  0
 24 25  2  0  0  0  0
 25 26  1  0  0  0  0
 26 27  2  0  0  0  0
 27 28  1  0  0  0  0
 28 29  2  0  0  0  0
 29 24  1  0  0  0  0
 30 31  2  0  0  0  0
 31 32  1  0  0  0  0
 32 33  2  0  0  0  0
 33 34  1  0  0  0  0
 34 35  2  0  0  0  0
 35 30  1  0  0  0  0
 36 37  2  0  0  0  0
 37 38  1  0  0  0  0
 38 39  2  0  0  0  0
 39 40  1  0  0  0  0
 40 41  2  0  0  0  0
 41 36  1  0  0  0  0
 42 43  2  0  0  0  0
 43 44  1  0  0  0  0
 44 45  2  0  0  0  0
 45 46  1  0  0  0  0
 46 47  2  0  0  0  0
 47 42  1  0  0  0  0
 48 49  2  0  0  0  0
 49 50  1  0  0  0  0
 50 51  2  0  0  0  0
 51 52  1  0  0  0  0
 52 53  2  0  0  0  0
 53 48  1  0  0  0  0
 52  2  1  0  0  0  0
 47  2  1  0  0  0  0
 41  4  1  0  0  0  0
 35  4  1  0  0  0  0
 20  5  1  0  0  0  0
 25  5  1  0  0  0  0
 14  3  1  0  0  0  0
  9  3  1  0  0  0  0
  4 54  1  0  0  0  0
 55  5  1  0  0  0  0
  2 56  1  0  0  0  0
  3 57  1  0  0  0  0
 56 58  1  0  0  0  0
 54 59  1  0  0  0  0
 58 60  1  0  0  0  0
 60 57  1  0  0  0  0
 59 61  1  0  0  0  0
 61 55  1  0  0  0  0
M  END
> <NMREDATA_VERSION>
1.1

> <NMREDATA_LEVEL>
0

> <NMREDATA_SOLVENT>
THF-d8

> <NMREDATA_TEMPERATURE>
298

> <NMREDATA_FORMULA>
C56H61NaP4Rh

> <NMREDATA_SMILES>
C1CCP([Rh]2(P(C1)(c1ccccc1)c1ccccc1)P(CCCCP2(c1ccccc1)c1ccccc1)(c1ccccc1)c1ccccc1)(c1ccccc1)c1ccccc1.[NaH]

> <NMREDATA_ASSIGNMENT>
Rh1, -467.00, 1

> <NMREDATA_1D_103Rh>
-467.00, L=Rh1

$$$$

  ACD/LABS12142511552D

 66 74  0  0  0  0  0  0  0  0  2 V2000
   16.1966  -10.1055    0.0000 Rh   0  0  0  0  0  0  0  0  0  0  0  0
   15.0448  -10.7705    0.0000 P    0  0  0  0  0  5  0  0  0  0  0  0
   15.0448   -9.4405    0.0000 P    0  0  0  0  0  5  0  0  0  0  0  0
   17.3484  -10.7705    0.0000 P    0  0  0  0  0  5  0  0  0  0  0  0
   17.3484   -9.4405    0.0000 P    0  0  0  0  0  5  0  0  0  0  0  0
   11.2765   -6.6697    0.0000 C    0  0  0  0  0  0  0  0  0  0  0  0
   11.2765   -7.9997    0.0000 C    0  0  0  0  0  0  0  0  0  0  0  0
   12.4283   -8.6647    0.0000 C    0  5  0  0  0  0  0  0  0  0  0  0
   13.5801   -7.9997    0.0000 C    0  0  0  0  0  0  0  0  0  0  0  0
   13.5801   -6.6697    0.0000 C    0  0  0  0  0  0  0  0  0  0  0  0
   12.4283   -6.0047    0.0000 C    0  0  0  0  0  0  0  0  0  0  0  0
   14.3244   -5.3951    0.0000 C    0  0  0  0  0  0  0  0  0  0  0  0
   14.3244   -6.7251    0.0000 C    0  0  0  0  0  0  0  0  0  0  0  0
   15.4762   -7.3901    0.0000 C    0  0  0  0  0  0  0  0  0  0  0  0
   16.6280   -6.7251    0.0000 C    0  0  0  0  0  0  0  0  0  0  0  0
   16.6280   -5.3951    0.0000 C    0  0  0  0  0  0  0  0  0  0  0  0
   15.4762   -4.7301    0.0000 C    0  0  0  0  0  0  0  0  0  0  0  0
   17.5940   -6.0601    0.0000 C    0  0  0  0  0  0  0  0  0  0  0  0
   17.5940   -7.3901    0.0000 C    0  0  0  0  0  0  0  0  0  0  0  0
   18.7458   -8.0551    0.0000 C    0  0  0  0  0  0  0  0  0  0  0  0
   19.8976   -7.3901    0.0000 C    0  0  0  0  0  0  0  0  0  0  0  0
   19.8976   -6.0601    0.0000 C    0  0  0  0  0  0  0  0  0  0  0  0
   18.7458   -5.3951    0.0000 C    0  0  0  0  0  0  0  0  0  0  0  0
   19.8106   -7.7780    0.0000 C    0  0  0  0  0  0  0  0  0  0  0  0
   19.8106   -9.1080    0.0000 C    0  0  0  0  0  0  0  0  0  0  0  0
   20.9625   -9.7730    0.0000 C    0  0  0  0  0  0  0  0  0  0  0  0
   22.1143   -9.1080    0.0000 C    0  0  0  0  0  0  0  0  0  0  0  0
   22.1143   -7.7780    0.0000 C    0  0  0  0  0  0  0  0  0  0  0  0
   20.9625   -7.1130    0.0000 C    0  0  0  0  0  0  0  0  0  0  0  0
   17.7602  -12.4330    0.0000 C    0  0  0  0  0  0  0  0  0  0  0  0
   17.7602  -13.7630    0.0000 C    0  0  0  0  0  0  0  0  0  0  0  0
   20.0638  -13.7630    0.0000 C    0  0  0  0  0  0  0  0  0  0  0  0
   20.0638  -12.4330    0.0000 C    0  0  0  0  0  0  0  0  0  0  0  0
   18.9120  -11.7680    0.0000 C    0  0  0  0  0  0  0  0  0  0  0  0
   15.0448  -13.2089    0.0000 C    0  0  0  0  0  0  0  0  0  0  0  0
   15.0448  -14.5389    0.0000 C    0  0  0  0  0  0  0  0  0  0  0  0
   16.1966  -15.2039    0.0000 C    0  0  0  0  0  0  0  0  0  0  0  0
   17.3484  -14.5389    0.0000 C    0  0  0  0  0  0  0  0  0  0  0  0
   17.3484  -13.2089    0.0000 C    0  0  0  0  0  0  0  0  0  0  0  0
   16.1966  -12.5439    0.0000 C    0  0  0  0  0  0  0  0  0  0  0  0
   11.6090  -13.2089    0.0000 C    0  0  0  0  0  0  0  0  0  0  0  0
   11.6090  -14.5389    0.0000 C    0  0  0  0  0  0  0  0  0  0  0  0
   12.7608  -15.2039    0.0000 C    0  0  0  0  0  0  0  0  0  0  0  0
   13.9126  -14.5389    0.0000 C    0  0  0  0  0  0  0  0  0  0  0  0
   13.9126  -13.2089    0.0000 C    0  0  0  0  0  0  0  0  0  0  0  0
   12.7608  -12.5439    0.0000 C    0  0  0  0  0  0  0  0  0  0  0  0
    7.7852  -11.9897    0.0000 C    0  0  0  0  0  0  0  0  0  0  0  0
    7.7852  -13.3197    0.0000 C    0  0  0  0  0  0  0  0  0  0  0  0
    8.9370  -13.9847    0.0000 C    0  0  0  0  0  0  0  0  0  0  0  0
   10.0888  -13.3197    0.0000 C    0  0  0  0  0  0  0  0  0  0  0  0
   10.0888  -11.9897    0.0000 C    0  0  0  0  0  0  0  0  0  0  0  0
    8.9370  -11.3247    0.0000 C    0  0  0  0  0  0  0  0  0  0  0  0
   18.6784  -10.7705    0.0000 C    0  0  0  0  0  0  0  0  0  0  0  0
   18.6331   -9.7848    0.0000 C    0  0  0  0  0  0  0  0  0  0  0  0
   13.7148  -10.7705    0.0000 C    0  0  0  0  0  0  0  0  0  0  0  0
   13.0379   -9.3297    0.0000 C    0  0  0  0  0  0  0  0  0  0  0  0
   10.1246   -6.0047    0.0000 F    0  0  0  0  0  0  0  0  0  0  0  0
   15.4762   -3.4001    0.0000 F    0  0  0  0  0  0  0  0  0  0  0  0
   18.7458   -4.0651    0.0000 F    0  0  0  0  0  0  0  0  0  0  0  0
   23.2661   -7.1130    0.0000 F    0  0  0  0  0  0  0  0  0  0  0  0
   16.1966  -16.5339    0.0000 F    0  0  0  0  0  0  0  0  0  0  0  0
   12.7608  -16.5339    0.0000 F    0  0  0  0  0  0  0  0  0  0  0  0
    6.6334  -13.9847    0.0000 F    0  0  0  0  0  0  0  0  0  0  0  0
   18.9120  -14.4280    0.0000 C    0  0  0  0  0  0  0  0  0  0  0  0
   18.9120  -15.7580    0.0000 F    0  0  0  0  0  0  0  0  0  0  0  0
   24.4047  -10.0631    0.0000 Na   0  3  0  0  0  0  0  0  0  0  0  0
  1  2  1  0  0  0  0
  1  3  1  0  0  0  0
  1  4  1  0  0  0  0
  1  5  1  0  0  0  0
  6  7  2  0  0  0  0
  7  8  1  0  0  0  0
  8  9  2  0  0  0  0
  9 10  1  0  0  0  0
 10 11  2  0  0  0  0
 11  6  1  0  0  0  0
 12 13  2  0  0  0  0
 13 14  1  0  0  0  0
 14 15  2  0  0  0  0
 15 16  1  0  0  0  0
 16 17  2  0  0  0  0
 17 12  1  0  0  0  0
 18 19  2  0  0  0  0
 19 20  1  0  0  0  0
 20 21  2  0  0  0  0
 21 22  1  0  0  0  0
 22 23  2  0  0  0  0
 23 18  1  0  0  0  0
 24 25  2  0  0  0  0
 25 26  1  0  0  0  0
 26 27  2  0  0  0  0
 27 28  1  0  0  0  0
 28 29  2  0  0  0  0
 29 24  1  0  0  0  0
 30 31  2  0  0  0  0
 31 64  1  0  0  0  0
 64 32  2  0  0  0  0
 32 33  1  0  0  0  0
 33 34  2  0  0  0  0
 34 30  1  0  0  0  0
 35 36  2  0  0  0  0
 36 37  1  0  0  0  0
 37 38  2  0  0  0  0
 38 39  1  0  0  0  0
 39 40  2  0  0  0  0
 40 35  1  0  0  0  0
 41 42  2  0  0  0  0
 42 43  1  0  0  0  0
 43 44  2  0  0  0  0
 44 45  1  0  0  0  0
 45 46  2  0  0  0  0
 46 41  1  0  0  0  0
 47 48  2  0  0  0  0
 48 49  1  0  0  0  0
 49 50  2  0  0  0  0
 50 51  1  0  0  0  0
 51 52  2  0  0  0  0
 52 47  1  0  0  0  0
 51  2  1  0  0  0  0
 46  2  1  0  0  0  0
 40  4  1  0  0  0  0
 34  4  1  0  0  0  0
 20  5  1  0  0  0  0
 25  5  1  0  0  0  0
 14  3  1  0  0  0  0
  9  3  1  0  0  0  0
  4 53  1  0  0  0  0
 54  5  1  0  0  0  0
  2 55  1  0  0  0  0
  3 56  1  0  0  0  0
 55 56  1  0  0  0  0
 53 54  1  0  0  0  0
  6 57  1  0  0  0  0
 17 58  1  0  0  0  0
 23 59  1  0  0  0  0
 28 60  1  0  0  0  0
 37 61  1  0  0  0  0
 43 62  1  0  0  0  0
 48 63  1  0  0  0  0
 64 65  1  0  0  0  0
M  END
> <NMREDATA_VERSION>
1.1

> <NMREDATA_LEVEL>
0

> <NMREDATA_SOLVENT>
THF-d8

> <NMREDATA_TEMPERATURE>
298

> <NMREDATA_FORMULA>
C52H45F8NaP4Rh

> <NMREDATA_SMILES>
Fc1ccc(cc1)P1(CCP([Rh]21P(CCP2(c1ccc(cc1)F)c1ccc(cc1)F)(c1ccc(cc1)F)c1ccc(cc1)F)(c1ccc(cc1)F)c1ccc(cc1)F)c1ccc(cc1)F.[NaH]

> <NMREDATA_ASSIGNMENT>
Rh1, -954.00, 1

> <NMREDATA_1D_103Rh>
-954.00, L=Rh1

$$$$

  ACD/LABS12142511562D

 66 74  0  0  0  0  0  0  0  0  2 V2000
   16.5972  -10.1055    0.0000 Rh   0  0  0  0  0  0  0  0  0  0  0  0
   15.4454  -10.7705    0.0000 P    0  0  0  0  0  5  0  0  0  0  0  0
   15.4454   -9.4405    0.0000 P    0  0  0  0  0  5  0  0  0  0  0  0
   17.7490  -10.7705    0.0000 P    0  0  0  0  0  5  0  0  0  0  0  0
   17.7490   -9.4405    0.0000 P    0  0  0  0  0  5  0  0  0  0  0  0
   11.6771   -6.6697    0.0000 C    0  0  0  0  0  0  0  0  0  0  0  0
   11.6771   -7.9997    0.0000 C    0  0  0  0  0  0  0  0  0  0  0  0
   12.8289   -8.6647    0.0000 C    0  5  0  0  0  0  0  0  0  0  0  0
   13.9807   -7.9997    0.0000 C    0  0  0  0  0  0  0  0  0  0  0  0
   13.9807   -6.6697    0.0000 C    0  0  0  0  0  0  0  0  0  0  0  0
   12.8289   -6.0047    0.0000 C    0  0  0  0  0  0  0  0  0  0  0  0
   14.7250   -5.3951    0.0000 C    0  0  0  0  0  0  0  0  0  0  0  0
   14.7250   -6.7251    0.0000 C    0  0  0  0  0  0  0  0  0  0  0  0
   15.8768   -7.3901    0.0000 C    0  0  0  0  0  0  0  0  0  0  0  0
   17.0286   -6.7251    0.0000 C    0  0  0  0  0  0  0  0  0  0  0  0
   17.0286   -5.3951    0.0000 C    0  0  0  0  0  0  0  0  0  0  0  0
   15.8768   -4.7301    0.0000 C    0  0  0  0  0  0  0  0  0  0  0  0
   17.9946   -6.0601    0.0000 C    0  0  0  0  0  0  0  0  0  0  0  0
   17.9946   -7.3901    0.0000 C    0  0  0  0  0  0  0  0  0  0  0  0
   19.1464   -8.0551    0.0000 C    0  0  0  0  0  0  0  0  0  0  0  0
   20.2982   -7.3901    0.0000 C    0  0  0  0  0  0  0  0  0  0  0  0
   20.2982   -6.0601    0.0000 C    0  0  0  0  0  0  0  0  0  0  0  0
   19.1464   -5.3951    0.0000 C    0  0  0  0  0  0  0  0  0  0  0  0
   20.2112   -7.7780    0.0000 C    0  0  0  0  0  0  0  0  0  0  0  0
   20.2112   -9.1080    0.0000 C    0  0  0  0  0  0  0  0  0  0  0  0
   21.3631   -9.7730    0.0000 C    0  0  0  0  0  0  0  0  0  0  0  0
   22.5149   -9.1080    0.0000 C    0  0  0  0  0  0  0  0  0  0  0  0
   22.5149   -7.7780    0.0000 C    0  0  0  0  0  0  0  0  0  0  0  0
   21.3631   -7.1130    0.0000 C    0  0  0  0  0  0  0  0  0  0  0  0
   18.1608  -12.4330    0.0000 C    0  0  0  0  0  0  0  0  0  0  0  0
   18.1608  -13.7630    0.0000 C    0  0  0  0  0  0  0  0  0  0  0  0
   20.4644  -13.7630    0.0000 C    0  0  0  0  0  0  0  0  0  0  0  0
   20.4644  -12.4330    0.0000 C    0  0  0  0  0  0  0  0  0  0  0  0
   19.3126  -11.7680    0.0000 C    0  0  0  0  0  0  0  0  0  0  0  0
   15.4454  -13.2089    0.0000 C    0  0  0  0  0  0  0  0  0  0  0  0
   15.4454  -14.5389    0.0000 C    0  0  0  0  0  0  0  0  0  0  0  0
   16.5972  -15.2039    0.0000 C    0  0  0  0  0  0  0  0  0  0  0  0
   17.7490  -14.5389    0.0000 C    0  0  0  0  0  0  0  0  0  0  0  0
   17.7490  -13.2089    0.0000 C    0  0  0  0  0  0  0  0  0  0  0  0
   16.5972  -12.5439    0.0000 C    0  0  0  0  0  0  0  0  0  0  0  0
   12.0096  -13.2089    0.0000 C    0  0  0  0  0  0  0  0  0  0  0  0
   12.0096  -14.5389    0.0000 C    0  0  0  0  0  0  0  0  0  0  0  0
   13.1614  -15.2039    0.0000 C    0  0  0  0  0  0  0  0  0  0  0  0
   14.3132  -14.5389    0.0000 C    0  0  0  0  0  0  0  0  0  0  0  0
   14.3132  -13.2089    0.0000 C    0  0  0  0  0  0  0  0  0  0  0  0
   13.1614  -12.5439    0.0000 C    0  0  0  0  0  0  0  0  0  0  0  0
    8.1858  -11.9897    0.0000 C    0  0  0  0  0  0  0  0  0  0  0  0
    8.1858  -13.3197    0.0000 C    0  0  0  0  0  0  0  0  0  0  0  0
    9.3376  -13.9847    0.0000 C    0  0  0  0  0  0  0  0  0  0  0  0
   10.4894  -13.3197    0.0000 C    0  0  0  0  0  0  0  0  0  0  0  0
   10.4894  -11.9897    0.0000 C    0  0  0  0  0  0  0  0  0  0  0  0
    9.3376  -11.3247    0.0000 C    0  0  0  0  0  0  0  0  0  0  0  0
   19.0790  -10.7705    0.0000 C    0  0  0  0  0  0  0  0  0  0  0  0
   19.0337   -9.7848    0.0000 C    0  0  0  0  0  0  0  0  0  0  0  0
   14.1154  -10.7705    0.0000 C    0  0  0  0  0  0  0  0  0  0  0  0
   13.4385   -9.3297    0.0000 C    0  0  0  0  0  0  0  0  0  0  0  0
   10.5252   -6.0047    0.0000 C    0  0  0  0  0  0  0  0  0  0  0  0
   15.8768   -3.4001    0.0000 C    0  0  0  0  0  0  0  0  0  0  0  0
   19.1464   -4.0651    0.0000 C    0  0  0  0  0  0  0  0  0  0  0  0
   23.6667   -7.1130    0.0000 C    0  0  0  0  0  0  0  0  0  0  0  0
   16.5972  -16.5339    0.0000 C    0  0  0  0  0  0  0  0  0  0  0  0
   13.1614  -16.5339    0.0000 C    0  0  0  0  0  0  0  0  0  0  0  0
    7.0340  -13.9847    0.0000 C    0  0  0  0  0  0  0  0  0  0  0  0
   19.3126  -14.4280    0.0000 C    0  0  0  0  0  0  0  0  0  0  0  0
   19.3126  -15.7580    0.0000 C    0  0  0  0  0  0  0  0  0  0  0  0
   25.9590  -10.3355    0.0000 Na   0  3  0  0  0  0  0  0  0  0  0  0
  1  2  1  0  0  0  0
  1  3  1  0  0  0  0
  1  4  1  0  0  0  0
  1  5  1  0  0  0  0
  6  7  2  0  0  0  0
  7  8  1  0  0  0  0
  8  9  2  0  0  0  0
  9 10  1  0  0  0  0
 10 11  2  0  0  0  0
 11  6  1  0  0  0  0
 12 13  2  0  0  0  0
 13 14  1  0  0  0  0
 14 15  2  0  0  0  0
 15 16  1  0  0  0  0
 16 17  2  0  0  0  0
 17 12  1  0  0  0  0
 18 19  2  0  0  0  0
 19 20  1  0  0  0  0
 20 21  2  0  0  0  0
 21 22  1  0  0  0  0
 22 23  2  0  0  0  0
 23 18  1  0  0  0  0
 24 25  2  0  0  0  0
 25 26  1  0  0  0  0
 26 27  2  0  0  0  0
 27 28  1  0  0  0  0
 28 29  2  0  0  0  0
 29 24  1  0  0  0  0
 30 31  2  0  0  0  0
 31 64  1  0  0  0  0
 64 32  2  0  0  0  0
 32 33  1  0  0  0  0
 33 34  2  0  0  0  0
 34 30  1  0  0  0  0
 35 36  2  0  0  0  0
 36 37  1  0  0  0  0
 37 38  2  0  0  0  0
 38 39  1  0  0  0  0
 39 40  2  0  0  0  0
 40 35  1  0  0  0  0
 41 42  2  0  0  0  0
 42 43  1  0  0  0  0
 43 44  2  0  0  0  0
 44 45  1  0  0  0  0
 45 46  2  0  0  0  0
 46 41  1  0  0  0  0
 47 48  2  0  0  0  0
 48 49  1  0  0  0  0
 49 50  2  0  0  0  0
 50 51  1  0  0  0  0
 51 52  2  0  0  0  0
 52 47  1  0  0  0  0
 51  2  1  0  0  0  0
 46  2  1  0  0  0  0
 40  4  1  0  0  0  0
 34  4  1  0  0  0  0
 20  5  1  0  0  0  0
 25  5  1  0  0  0  0
 14  3  1  0  0  0  0
  9  3  1  0  0  0  0
  4 53  1  0  0  0  0
 54  5  1  0  0  0  0
  2 55  1  0  0  0  0
  3 56  1  0  0  0  0
 55 56  1  0  0  0  0
 53 54  1  0  0  0  0
  6 57  1  0  0  0  0
 17 58  1  0  0  0  0
 23 59  1  0  0  0  0
 28 60  1  0  0  0  0
 37 61  1  0  0  0  0
 43 62  1  0  0  0  0
 48 63  1  0  0  0  0
 64 65  1  0  0  0  0
M  END
> <NMREDATA_VERSION>
1.1

> <NMREDATA_LEVEL>
0

> <NMREDATA_SOLVENT>
THF-d8

> <NMREDATA_TEMPERATURE>
298

> <NMREDATA_FORMULA>
C60H69NaP4Rh

> <NMREDATA_SMILES>
Cc1ccc(cc1)P1(CCP([Rh]21P(CCP2(c1ccc(cc1)C)c1ccc(cc1)C)(c1ccc(cc1)C)c1ccc(cc1)C)(c1ccc(cc1)C)c1ccc(cc1)C)c1ccc(cc1)C.[NaH]

> <NMREDATA_ASSIGNMENT>
Rh1, -936.00, 1

> <NMREDATA_1D_103Rh>
-936.00, L=Rh1

$$$$

  ACD/LABS12142511572D

 74 82  0  0  0  0  0  0  0  0  2 V2000
   17.1731  -10.7785    0.0000 Rh   0  0  0  0  0  0  0  0  0  0  0  0
   16.0213  -11.4435    0.0000 P    0  0  0  0  0  5  0  0  0  0  0  0
   16.0213  -10.1135    0.0000 P    0  0  0  0  0  5  0  0  0  0  0  0
   18.3249  -11.4435    0.0000 P    0  0  0  0  0  5  0  0  0  0  0  0
   18.3249  -10.1135    0.0000 P    0  0  0  0  0  5  0  0  0  0  0  0
   12.2530   -7.3427    0.0000 C    0  0  0  0  0  0  0  0  0  0  0  0
   12.2530   -8.6727    0.0000 C    0  0  0  0  0  0  0  0  0  0  0  0
   13.4048   -9.3377    0.0000 C    0  5  0  0  0  0  0  0  0  0  0  0
   14.5566   -8.6727    0.0000 C    0  0  0  0  0  0  0  0  0  0  0  0
   14.5566   -7.3427    0.0000 C    0  0  0  0  0  0  0  0  0  0  0  0
   13.4048   -6.6777    0.0000 C    0  0  0  0  0  0  0  0  0  0  0  0
   15.3009   -6.0681    0.0000 C    0  0  0  0  0  0  0  0  0  0  0  0
   15.3009   -7.3981    0.0000 C    0  0  0  0  0  0  0  0  0  0  0  0
   16.4527   -8.0631    0.0000 C    0  0  0  0  0  0  0  0  0  0  0  0
   17.6045   -7.3981    0.0000 C    0  0  0  0  0  0  0  0  0  0  0  0
   17.6045   -6.0681    0.0000 C    0  0  0  0  0  0  0  0  0  0  0  0
   16.4527   -5.4031    0.0000 C    0  0  0  0  0  0  0  0  0  0  0  0
   18.5705   -6.7331    0.0000 C    0  0  0  0  0  0  0  0  0  0  0  0
   18.5705   -8.0631    0.0000 C    0  0  0  0  0  0  0  0  0  0  0  0
   19.7223   -8.7281    0.0000 C    0  0  0  0  0  0  0  0  0  0  0  0
   20.8741   -8.0631    0.0000 C    0  0  0  0  0  0  0  0  0  0  0  0
   20.8741   -6.7331    0.0000 C    0  0  0  0  0  0  0  0  0  0  0  0
   19.7223   -6.0681    0.0000 C    0  0  0  0  0  0  0  0  0  0  0  0
   20.7871   -8.4510    0.0000 C    0  0  0  0  0  0  0  0  0  0  0  0
   20.7871   -9.7810    0.0000 C    0  0  0  0  0  0  0  0  0  0  0  0
   21.9390  -10.4460    0.0000 C    0  0  0  0  0  0  0  0  0  0  0  0
   23.0908   -9.7810    0.0000 C    0  0  0  0  0  0  0  0  0  0  0  0
   23.0908   -8.4510    0.0000 C    0  0  0  0  0  0  0  0  0  0  0  0
   21.9390   -7.7860    0.0000 C    0  0  0  0  0  0  0  0  0  0  0  0
   18.7367  -13.1060    0.0000 C    0  0  0  0  0  0  0  0  0  0  0  0
   18.7367  -14.4360    0.0000 C    0  0  0  0  0  0  0  0  0  0  0  0
   21.0404  -14.4360    0.0000 C    0  0  0  0  0  0  0  0  0  0  0  0
   21.0404  -13.1060    0.0000 C    0  0  0  0  0  0  0  0  0  0  0  0
   19.8885  -12.4410    0.0000 C    0  0  0  0  0  0  0  0  0  0  0  0
   16.0213  -13.8819    0.0000 C    0  0  0  0  0  0  0  0  0  0  0  0
   16.0213  -15.2119    0.0000 C    0  0  0  0  0  0  0  0  0  0  0  0
   17.1731  -15.8769    0.0000 C    0  0  0  0  0  0  0  0  0  0  0  0
   18.3249  -15.2119    0.0000 C    0  0  0  0  0  0  0  0  0  0  0  0
   18.3249  -13.8819    0.0000 C    0  0  0  0  0  0  0  0  0  0  0  0
   17.1731  -13.2169    0.0000 C    0  0  0  0  0  0  0  0  0  0  0  0
   12.5855  -13.8819    0.0000 C    0  0  0  0  0  0  0  0  0  0  0  0
   12.5855  -15.2119    0.0000 C    0  0  0  0  0  0  0  0  0  0  0  0
   13.7373  -15.8769    0.0000 C    0  0  0  0  0  0  0  0  0  0  0  0
   14.8891  -15.2119    0.0000 C    0  0  0  0  0  0  0  0  0  0  0  0
   14.8891  -13.8819    0.0000 C    0  0  0  0  0  0  0  0  0  0  0  0
   13.7373  -13.2169    0.0000 C    0  0  0  0  0  0  0  0  0  0  0  0
    8.7617  -12.6627    0.0000 C    0  0  0  0  0  0  0  0  0  0  0  0
    8.7617  -13.9927    0.0000 C    0  0  0  0  0  0  0  0  0  0  0  0
    9.9135  -14.6577    0.0000 C    0  0  0  0  0  0  0  0  0  0  0  0
   11.0653  -13.9927    0.0000 C    0  0  0  0  0  0  0  0  0  0  0  0
   11.0653  -12.6627    0.0000 C    0  0  0  0  0  0  0  0  0  0  0  0
    9.9135  -11.9977    0.0000 C    0  0  0  0  0  0  0  0  0  0  0  0
   19.6549  -11.4435    0.0000 C    0  0  0  0  0  0  0  0  0  0  0  0
   19.6096  -10.4578    0.0000 C    0  0  0  0  0  0  0  0  0  0  0  0
   14.6913  -11.4435    0.0000 C    0  0  0  0  0  0  0  0  0  0  0  0
   14.0144  -10.0027    0.0000 C    0  0  0  0  0  0  0  0  0  0  0  0
   11.1012   -6.6777    0.0000 O    0  0  0  0  0  0  0  0  0  0  0  0
   16.4527   -4.0731    0.0000 O    0  0  0  0  0  0  0  0  0  0  0  0
   19.7223   -4.7381    0.0000 O    0  0  0  0  0  0  0  0  0  0  0  0
   24.2426   -7.7860    0.0000 O    0  0  0  0  0  0  0  0  0  0  0  0
   17.1731  -17.2069    0.0000 O    0  0  0  0  0  0  0  0  0  0  0  0
   13.7373  -17.2069    0.0000 O    0  0  0  0  0  0  0  0  0  0  0  0
    7.6099  -14.6577    0.0000 O    0  0  0  0  0  0  0  0  0  0  0  0
   19.8885  -15.1010    0.0000 C    0  0  0  0  0  0  0  0  0  0  0  0
   19.8885  -16.4310    0.0000 O    0  0  0  0  0  0  0  0  0  0  0  0
    6.4581  -13.9927    0.0000 C    0  0  0  0  0  0  0  0  0  0  0  0
   14.8891  -17.8719    0.0000 C    0  0  0  0  0  0  0  0  0  0  0  0
   18.3249  -17.8719    0.0000 C    0  0  0  0  0  0  0  0  0  0  0  0
   21.0404  -17.0961    0.0000 C    0  0  0  0  0  0  0  0  0  0  0  0
   25.3944   -8.4510    0.0000 C    0  0  0  0  0  0  0  0  0  0  0  0
   18.5705   -4.0731    0.0000 C    0  0  0  0  0  0  0  0  0  0  0  0
   15.3009   -3.4081    0.0000 C    0  0  0  0  0  0  0  0  0  0  0  0
    9.9493   -7.3427    0.0000 C    0  0  0  0  0  0  0  0  0  0  0  0
   25.6866  -11.9380    0.0000 Na   0  3  0  0  0  0  0  0  0  0  0  0
  1  2  1  0  0  0  0
  1  3  1  0  0  0  0
  1  4  1  0  0  0  0
  1  5  1  0  0  0  0
  6  7  2  0  0  0  0
  7  8  1  0  0  0  0
  8  9  2  0  0  0  0
  9 10  1  0  0  0  0
 10 11  2  0  0  0  0
 11  6  1  0  0  0  0
 12 13  2  0  0  0  0
 13 14  1  0  0  0  0
 14 15  2  0  0  0  0
 15 16  1  0  0  0  0
 16 17  2  0  0  0  0
 17 12  1  0  0  0  0
 18 19  2  0  0  0  0
 19 20  1  0  0  0  0
 20 21  2  0  0  0  0
 21 22  1  0  0  0  0
 22 23  2  0  0  0  0
 23 18  1  0  0  0  0
 24 25  2  0  0  0  0
 25 26  1  0  0  0  0
 26 27  2  0  0  0  0
 27 28  1  0  0  0  0
 28 29  2  0  0  0  0
 29 24  1  0  0  0  0
 30 31  2  0  0  0  0
 31 64  1  0  0  0  0
 64 32  2  0  0  0  0
 32 33  1  0  0  0  0
 33 34  2  0  0  0  0
 34 30  1  0  0  0  0
 35 36  2  0  0  0  0
 36 37  1  0  0  0  0
 37 38  2  0  0  0  0
 38 39  1  0  0  0  0
 39 40  2  0  0  0  0
 40 35  1  0  0  0  0
 41 42  2  0  0  0  0
 42 43  1  0  0  0  0
 43 44  2  0  0  0  0
 44 45  1  0  0  0  0
 45 46  2  0  0  0  0
 46 41  1  0  0  0  0
 47 48  2  0  0  0  0
 48 49  1  0  0  0  0
 49 50  2  0  0  0  0
 50 51  1  0  0  0  0
 51 52  2  0  0  0  0
 52 47  1  0  0  0  0
 51  2  1  0  0  0  0
 46  2  1  0  0  0  0
 40  4  1  0  0  0  0
 34  4  1  0  0  0  0
 20  5  1  0  0  0  0
 25  5  1  0  0  0  0
 14  3  1  0  0  0  0
  9  3  1  0  0  0  0
  4 53  1  0  0  0  0
 54  5  1  0  0  0  0
  2 55  1  0  0  0  0
  3 56  1  0  0  0  0
 55 56  1  0  0  0  0
 53 54  1  0  0  0  0
  6 57  1  0  0  0  0
 17 58  1  0  0  0  0
 23 59  1  0  0  0  0
 28 60  1  0  0  0  0
 37 61  1  0  0  0  0
 43 62  1  0  0  0  0
 48 63  1  0  0  0  0
 64 65  1  0  0  0  0
 63 66  1  0  0  0  0
 62 67  1  0  0  0  0
 61 68  1  0  0  0  0
 65 69  1  0  0  0  0
 60 70  1  0  0  0  0
 59 71  1  0  0  0  0
 58 72  1  0  0  0  0
 57 73  1  0  0  0  0
M  END
> <NMREDATA_VERSION>
1.1

> <NMREDATA_LEVEL>
0

> <NMREDATA_SOLVENT>
THF-d8

> <NMREDATA_TEMPERATURE>
298

> <NMREDATA_FORMULA>
C60H69NaO8P4Rh

> <NMREDATA_SMILES>
COc1ccc(cc1)P1(CCP([Rh]21P(CCP2(c1ccc(cc1)OC)c1ccc(cc1)OC)(c1ccc(cc1)OC)c1ccc(cc1)OC)(c1ccc(cc1)OC)c1ccc(cc1)OC)c1ccc(cc1)OC.[NaH]

> <NMREDATA_ASSIGNMENT>
Rh1, -957.00, 1

> <NMREDATA_1D_103Rh>
-957.00, L=Rh1

$$$$

  ACD/LABS12142511582D

 58 66  0  0  0  0  0  0  0  0  2 V2000
   15.6963   -7.7458    0.0000 Rh   0  0  0  0  0  0  0  0  0  0  0  0
   14.5445   -8.4108    0.0000 P    0  0  0  0  0  5  0  0  0  0  0  0
   14.5445   -7.0808    0.0000 P    0  0  0  0  0  5  0  0  0  0  0  0
   16.8481   -8.4108    0.0000 P    0  0  0  0  0  5  0  0  0  0  0  0
   16.8481   -7.0808    0.0000 P    0  0  0  0  0  5  0  0  0  0  0  0
   14.2002   -5.7961    0.0000 C    0  0  0  0  0  0  0  0  0  0  0  0
   18.1328   -6.7366    0.0000 C    0  0  0  0  0  0  0  0  0  0  0  0
   18.4117   -9.4083    0.0000 C    0  0  0  0  0  0  0  0  0  0  0  0
   15.6963  -10.1842    0.0000 C    0  0  0  0  0  0  0  0  0  0  0  0
   12.2605  -10.1842    0.0000 C    0  0  0  0  0  0  0  0  0  0  0  0
    9.5885   -9.6300    0.0000 C    0  0  0  0  0  0  0  0  0  0  0  0
   18.1781   -8.4108    0.0000 C    0  0  0  0  0  0  0  0  0  0  0  0
   18.1328   -7.4250    0.0000 C    0  0  0  0  0  0  0  0  0  0  0  0
   13.2145   -8.4108    0.0000 C    0  0  0  0  0  0  0  0  0  0  0  0
   12.9809   -7.3579    0.0000 C    0  0  0  0  0  0  0  0  0  0  0  0
   16.8481   -5.7508    0.0000 C    0  0  0  0  0  0  0  0  0  0  0  0
    8.6676   -8.6704    0.0000 C    0  0  0  0  0  0  0  0  0  0  0  0
    7.3761   -8.9881    0.0000 C    0  0  0  0  0  0  0  0  0  0  0  0
    7.0055  -10.2654    0.0000 C    0  0  0  0  0  0  0  0  0  0  0  0
    7.9264  -11.2250    0.0000 C    0  0  0  0  0  0  0  0  0  0  0  0
    9.2179  -10.9073    0.0000 C    0  0  0  0  0  0  0  0  0  0  0  0
   11.0288   -9.6822    0.0000 C    0  0  0  0  0  0  0  0  0  0  0  0
    9.9783  -10.4978    0.0000 C    0  0  0  0  0  0  0  0  0  0  0  0
   10.1594  -11.8154    0.0000 C    0  0  0  0  0  0  0  0  0  0  0  0
   11.3910  -12.3174    0.0000 C    0  0  0  0  0  0  0  0  0  0  0  0
   12.4416  -11.5018    0.0000 C    0  0  0  0  0  0  0  0  0  0  0  0
   14.3681  -10.1144    0.0000 C    0  0  0  0  0  0  0  0  0  0  0  0
   13.6437  -11.2298    0.0000 C    0  0  0  0  0  0  0  0  0  0  0  0
   14.2474  -12.4149    0.0000 C    0  0  0  0  0  0  0  0  0  0  0  0
   15.5755  -12.4846    0.0000 C    0  0  0  0  0  0  0  0  0  0  0  0
   16.3000  -11.3692    0.0000 C    0  0  0  0  0  0  0  0  0  0  0  0
   18.3529  -10.7370    0.0000 C    0  0  0  0  0  0  0  0  0  0  0  0
   19.4741  -11.4523    0.0000 C    0  0  0  0  0  0  0  0  0  0  0  0
   20.6542  -10.8389    0.0000 C    0  0  0  0  0  0  0  0  0  0  0  0
   20.7131   -9.5102    0.0000 C    0  0  0  0  0  0  0  0  0  0  0  0
   19.5918   -8.7949    0.0000 C    0  0  0  0  0  0  0  0  0  0  0  0
   19.0732   -7.6770    0.0000 C    0  0  0  0  0  0  0  0  0  0  0  0
   20.3579   -7.3328    0.0000 C    0  0  0  0  0  0  0  0  0  0  0  0
   20.7022   -6.0481    0.0000 C    0  0  0  0  0  0  0  0  0  0  0  0
   19.7617   -5.1077    0.0000 C    0  0  0  0  0  0  0  0  0  0  0  0
   18.4770   -5.4519    0.0000 C    0  0  0  0  0  0  0  0  0  0  0  0
   17.9999   -5.0858    0.0000 C    0  0  0  0  0  0  0  0  0  0  0  0
   17.9999   -3.7558    0.0000 C    0  0  0  0  0  0  0  0  0  0  0  0
   16.8481   -3.0908    0.0000 C    0  0  0  0  0  0  0  0  0  0  0  0
   15.6963   -3.7558    0.0000 C    0  0  0  0  0  0  0  0  0  0  0  0
   15.6963   -5.0858    0.0000 C    0  0  0  0  0  0  0  0  0  0  0  0
   15.1407   -4.8557    0.0000 C    0  0  0  0  0  0  0  0  0  0  0  0
   14.7965   -3.5710    0.0000 C    0  0  0  0  0  0  0  0  0  0  0  0
   13.5118   -3.2268    0.0000 C    0  0  0  0  0  0  0  0  0  0  0  0
   12.5713   -4.1672    0.0000 C    0  0  0  0  0  0  0  0  0  0  0  0
   12.9156   -5.3965    0.0000 C    0  0  0  0  0  0  0  0  0  0  0  0
    8.3932   -5.1966    0.0000 C    0  0  0  0  0  0  0  0  0  0  0  0
    8.3932   -6.5266    0.0000 C    0  0  0  0  0  0  0  0  0  0  0  0
    9.5450   -7.1916    0.0000 C    0  0  0  0  0  0  0  0  0  0  0  0
   10.6968   -6.5266    0.0000 C    0  0  0  0  0  0  0  0  0  0  0  0
   10.6968   -5.1966    0.0000 C    0  0  0  0  0  0  0  0  0  0  0  0
    9.5450   -4.5316    0.0000 C    0  5  0  0  0  0  0  0  0  0  0  0
   22.8824   -7.6114    0.0000 Na   0  3  0  0  0  0  0  0  0  0  0  0
  1  2  1  0  0  0  0
  1  3  1  0  0  0  0
  1  4  1  0  0  0  0
  1  5  1  0  0  0  0
 11  2  1  0  0  0  0
 10  2  1  0  0  0  0
  9  4  1  0  0  0  0
  8  4  1  0  0  0  0
  7  5  1  0  0  0  0
  6  3  1  0  0  0  0
  4 12  1  0  0  0  0
 13  5  1  0  0  0  0
  2 14  1  0  0  0  0
  3 15  1  0  0  0  0
 14 15  1  0  0  0  0
 12 13  1  0  0  0  0
  5 16  1  0  0  0  0
 17 18  1  0  0  0  0
 19 20  1  0  0  0  0
 21 11  1  0  0  0  0
 22 23  1  0  0  0  0
 24 25  1  0  0  0  0
 26 10  1  0  0  0  0
 27 28  1  0  0  0  0
 29 30  1  0  0  0  0
 31  9  1  0  0  0  0
 32 33  1  0  0  0  0
 34 35  1  0  0  0  0
 36  8  1  0  0  0  0
 37 38  1  0  0  0  0
 39 40  1  0  0  0  0
 41  7  1  0  0  0  0
 42 43  1  0  0  0  0
 44 45  1  0  0  0  0
 46 16  1  0  0  0  0
 47 48  1  0  0  0  0
 49 50  1  0  0  0  0
 51  6  1  0  0  0  0
 53 54  1  0  0  0  0
 55 56  1  0  0  0  0
 57 52  1  0  0  0  0
  3 55  1  0  0  0  0
 53 52  1  0  0  0  0
 56 57  1  0  0  0  0
 54 55  1  0  0  0  0
  6 47  1  0  0  0  0
 48 49  1  0  0  0  0
 51 50  1  0  0  0  0
 46 45  1  0  0  0  0
 43 44  1  0  0  0  0
 16 42  1  0  0  0  0
 41 40  1  0  0  0  0
 39 38  1  0  0  0  0
 37  7  1  0  0  0  0
 36 35  1  0  0  0  0
 33 34  1  0  0  0  0
  8 32  1  0  0  0  0
 31 30  1  0  0  0  0
 29 28  1  0  0  0  0
  9 27  1  0  0  0  0
 10 22  1  0  0  0  0
 26 25  1  0  0  0  0
 24 23  1  0  0  0  0
 21 20  1  0  0  0  0
 11 17  1  0  0  0  0
 18 19  1  0  0  0  0
M  END
> <NMREDATA_VERSION>
1.1

> <NMREDATA_LEVEL>
0

> <NMREDATA_SOLVENT>
THF-d8

> <NMREDATA_TEMPERATURE>
298

> <NMREDATA_FORMULA>
C52H101NaP4Rh

> <NMREDATA_SMILES>
C1CCC(CC1)P1(CCP([Rh]21P(CCP2(C1CCCCC1)C1CCCCC1)(C1CCCCC1)C1CCCCC1)(C1CCCCC1)C1CCCCC1)C1CCCCC1.[NaH]

> <NMREDATA_ASSIGNMENT>
Rh1, -632.00, 1

> <NMREDATA_1D_103Rh>
-632.00, L=Rh1

$$$$
RhMan0925_0043.mol
  ChemDraw12142514062D

M  V30 COUNTS 15 15 0 0 0
 -0.545400  1.413405  0.000000 H    0  0  0  0  0  0  0
  0.037963  0.830042  0.000000 O    0  0  0  0  0  0  0
 -2.436418 -0.004030  0.000000 H    0  0  0  0  0  0  0
 -1.721946  0.408470  0.000000 O    0  0  0  0  0  0  0
 -2.071858 -1.413405  0.000000 H    0  0  0  0  0  0  0
 -1.357387 -1.000905  0.000000 O    0  0  0  0  0  0  0
  0.106713 -0.121000  0.000000 Rh   0  0  0  0  0  0  0
  1.028055  0.291500  0.000000 O    0  0  0  0  0  0  0
  1.028055 -0.533500  0.000000 O    0  0  0  0  0  0  0
  1.853055  0.291500  0.000000 C    0  0  0  0  0  0  0
  1.853055 -0.533500  0.000000 C    0  0  0  0  0  0  0
  2.436418  0.874863  0.000000 O    0  0  0  0  0  0  0
  2.436418 -1.116863  0.000000 O    0  0  0  0  0  0  0
 -0.065163 -1.358500  0.000000 O    0  0  0  0  0  0  0
  0.649309 -0.946000  0.000000 H    0  0  0  0  0  0  0
  1  2  1  0  0  0  0
  3  4  1  0  0  0  0
  5  6  1  0  0  0  0
  7  8  9  0  0  0  0
  7  9  9  0  0  0  0
  8 10  1  0  0  0  0
  9 11  1  0  0  0  0
 11 10  1  0  0  0  0
 10 12  2  0  0  0  0
 11 13  2  0  0  0  0
  6  7 10  0  0  0  0
 14 15  1  0  0  0  0
 14  7 10  0  0  0  0
  4  7 10  0  0  0  0
  2  7 10  0  0  0  0
M  END
> <NMREDATA_VERSION>
1.1

> <NMREDATA_LEVEL>
0

> <NMREDATA_SOLVENT>
H2O

> <NMREDATA_TEMPERATURE>
298

> <NMREDATA_FORMULA>
C2H4O8Rh

> <NMREDATA_SMILES>
O=C1[O][Rh]([O]C1=O)([OH])([OH])([OH])[OH]

> <NMREDATA_ASSIGNMENT>
Rh7, 1050.00, 7

> <NMREDATA_1D_103Rh>
1050.00, L=Rh7

$$$$
RhMan0925_0044.mol
  ChemDraw12142514092D

M  V30 COUNTS 17 18 0 0 0
 -0.545400  1.948107  0.000000 H    0  0  0  0  0  0  0
  0.037963  1.364744  0.000000 O    0  0  0  0  0  0  0
 -2.436418  0.530672  0.000000 H    0  0  0  0  0  0  0
 -1.721946  0.943172  0.000000 O    0  0  0  0  0  0  0
  0.106713  0.413702  0.000000 Rh   0  0  0  0  0  0  0
  1.028055  0.826202  0.000000 O    0  0  0  0  0  0  0
  1.028055  0.001202  0.000000 O    0  0  0  0  0  0  0
  1.853055  0.826202  0.000000 C    0  0  0  0  0  0  0
  1.853055  0.001202  0.000000 C    0  0  0  0  0  0  0
  2.436418  1.409565  0.000000 O    0  5  0  0  0  0  0
  2.436418 -0.582161  0.000000 O    0  0  0  0  0  0  0
 -0.476650 -0.169661  0.000000 O    0  0  0  0  0  0  0
  0.106713 -0.411298  0.000000 O    0  0  0  0  0  0  0
 -0.106813 -1.208187  0.000000 C    0  0  0  0  0  0  0
 -0.690176 -0.966549  0.000000 C    0  0  0  0  0  0  0
  0.258075 -1.948107  0.000000 O    0  5  0  0  0  0  0
 -1.430096 -1.331438  0.000000 O    0  0  0  0  0  0  0
  1  2  1  0  0  0  0
  3  4  1  0  0  0  0
  5  6  9  0  0  0  0
  5  7  9  0  0  0  0
  6  8  1  0  0  0  0
  7  9  1  0  0  0  0
  9  8  1  0  0  0  0
  9 11  2  0  0  0  0
  4  5 10  0  0  0  0
  2  5 10  0  0  0  0
  5 12  1  0  0  0  0
  5 13  1  0  0  0  0
 13 14  1  0  0  0  0
 12 15  1  0  0  0  0
 15 14  1  0  0  0  0
 15 17  2  0  0  0  0
 14 16  1  0  0  0  0
  8 10  1  0  0  0  0
M  END
> <NMREDATA_VERSION>
1.1

> <NMREDATA_LEVEL>
0

> <NMREDATA_SOLVENT>
H2O

> <NMREDATA_TEMPERATURE>
298

> <NMREDATA_FORMULA>
C4H6O10Rh

> <NMREDATA_SMILES>
OC1O[Rh]2([OH])([OH])([O]C(C(=O)[O]2)O)OC1=O

> <NMREDATA_ASSIGNMENT>
Rh5, 667.00, 5

> <NMREDATA_1D_103Rh>
667.00, L=Rh5

$$$$
RhMan0925_0045.mol
  ChemDraw12142514112D

M  V30 COUNTS 17 18 0 0 0
 -0.648785  1.550007  0.000000 H    0  0  0  0  0  0  0
 -0.065423  0.966644  0.000000 O    0  0  0  0  0  0  0
  0.003327  0.015602  0.000000 Rh   0  0  0  0  0  0  0
  0.924669  0.428102  0.000000 O    0  0  0  0  0  0  0
  0.924669 -0.396898  0.000000 O    0  0  0  0  0  0  0
  1.749669  0.428102  0.000000 C    0  0  0  0  0  0  0
  1.749669 -0.396898  0.000000 C    0  0  0  0  0  0  0
  2.333032  1.011466  0.000000 O    0  5  0  0  0  0  0
  2.333032 -0.980261  0.000000 O    0  0  0  0  0  0  0
 -0.793561  0.229128  0.000000 O    0  0  0  0  0  0  0
 -0.711143 -0.396898  0.000000 O    0  0  0  0  0  0  0
 -1.618561  0.229128  0.000000 C    0  0  0  0  0  0  0
 -1.536143 -0.396898  0.000000 C    0  0  0  0  0  0  0
 -2.080104 -1.017165  0.000000 O    0  0  0  0  0  0  0
 -2.333032  0.641628  0.000000 O    0  5  0  0  0  0  0
  0.106452 -1.325023  0.000000 O    0  0  0  0  0  0  0
  0.903342 -1.550007  0.000000 H    0  0  0  0  0  0  0
  1  2  1  0  0  0  0
  3  4  9  0  0  0  0
  3  5  9  0  0  0  0
  4  6  1  0  0  0  0
  5  7  1  0  0  0  0
  7  6  1  0  0  0  0
  7  9  2  0  0  0  0
  2  3 10  0  0  0  0
  6  8  1  0  0  0  0
  3 10  1  0  0  0  0
  3 11  1  0  0  0  0
 10 12  1  0  0  0  0
 11 13  1  0  0  0  0
 13 12  1  0  0  0  0
 13 14  2  0  0  0  0
 12 15  1  0  0  0  0
 16 17  1  0  0  0  0
 16  3 10  0  0  0  0
M  END
> <NMREDATA_VERSION>
1.1

> <NMREDATA_LEVEL>
0

> <NMREDATA_SOLVENT>
H2O

> <NMREDATA_TEMPERATURE>
298

> <NMREDATA_FORMULA>
C4H6O10Rh

> <NMREDATA_SMILES>
OC1O[Rh]2([OH])([OH])([O]C(C(=O)[O]2)O)OC1=O

> <NMREDATA_ASSIGNMENT>
Rh3, 643.00, 3

> <NMREDATA_1D_103Rh>
643.00, L=Rh3

$$$$
RhMan0925_0046.mol
  ChemDraw12142514162D

M  V30 COUNTS 19 21 0 0 0
 -0.004599 -0.212845  0.000000 Rh   0  0  0  0  0  0  0
  0.916744  0.199655  0.000000 O    0  0  0  0  0  0  0
  0.916744 -0.625345  0.000000 O    0  0  0  0  0  0  0
  1.741744  0.199655  0.000000 C    0  0  0  0  0  0  0
  1.741744 -0.625345  0.000000 C    0  0  0  0  0  0  0
  2.325106  0.783018  0.000000 O    0  5  0  0  0  0  0
  2.325106 -1.208708  0.000000 O    0  0  0  0  0  0  0
 -0.417099 -0.927316  0.000000 O    0  0  0  0  0  0  0
 -0.801487 -0.426371  0.000000 O    0  0  0  0  0  0  0
 -1.131569 -1.339816  0.000000 C    0  0  0  0  0  0  0
 -1.515958 -0.838871  0.000000 C    0  0  0  0  0  0  0
 -1.292519 -2.148964  0.000000 O    0  0  0  0  0  0  0
 -2.325106 -0.677921  0.000000 O    0  5  0  0  0  0  0
 -0.587961  0.370518  0.000000 O    0  0  0  0  0  0  0
 -0.004599  0.612155  0.000000 O    0  0  0  0  0  0  0
 -0.801487  1.167406  0.000000 C    0  0  0  0  0  0  0
 -0.218124  1.409044  0.000000 C    0  0  0  0  0  0  0
  0.146764  2.148964  0.000000 O    0  0  0  0  0  0  0
 -1.515958  1.579906  0.000000 O    0  5  0  0  0  0  0
  1  2  9  0  0  0  0
  1  3  9  0  0  0  0
  2  4  1  0  0  0  0
  3  5  1  0  0  0  0
  5  4  1  0  0  0  0
  5  7  2  0  0  0  0
  4  6  1  0  0  0  0
  1  8  1  0  0  0  0
  1  9  1  0  0  0  0
  8 10  1  0  0  0  0
  9 11  1  0  0  0  0
 10 11  1  0  0  0  0
 10 12  2  0  0  0  0
 11 13  1  0  0  0  0
  1 14  1  0  0  0  0
  1 15  1  0  0  0  0
 14 16  1  0  0  0  0
 15 17  1  0  0  0  0
 17 16  1  0  0  0  0
 17 18  2  0  0  0  0
 16 19  1  0  0  0  0
M  END
> <NMREDATA_VERSION>
1.1

> <NMREDATA_LEVEL>
0

> <NMREDATA_SOLVENT>
H2O

> <NMREDATA_TEMPERATURE>
298

> <NMREDATA_FORMULA>
C6H6O12Rh

> <NMREDATA_SMILES>
OC1O[Rh]23([O]C(C(=O)[O]3)O)(OC1=O)OC(C(=O)O2)O

> <NMREDATA_ASSIGNMENT>
Rh1, 267.00, 1

> <NMREDATA_1D_103Rh>
267.00, L=Rh1

$$$$
RhMan0925_0069.mol
  ChemDraw12142515512D

M  V30 COUNTS 31 33 0 0 0
 -0.367383  0.079390  0.000000 Bi   0  0  0  0  0  0  0
  0.835743 -0.711236  0.000000 Rh   0  0  0  0  0  0  0
  0.870118  0.801265  0.000000 O    0  0  0  0  0  0  0
 -0.436133  1.316890  0.000000 O    0  0  0  0  0  0  0
  0.457617  1.626265  0.000000 C    0  0  0  0  0  0  0
  2.210743 -0.573736  0.000000 O    0  0  0  0  0  0  0
  1.351368  0.354389  0.000000 O    0  0  0  0  0  0  0
  3.070119  0.388765  0.000000 C    0  0  0  0  0  0  0
  0.835743 -1.536236  0.000000 O    0  0  0  0  0  0  0
 -0.608008 -0.367486  0.000000 C    0  0  0  0  0  0  0
 -0.608008 -1.192486  0.000000 O    0  0  0  0  0  0  0
 -0.024645 -1.775848  0.000000 C    0  0  0  0  0  0  0
 -1.261134 -1.158111  0.000000 O    0  0  0  0  0  0  0
 -1.983008 -0.195611  0.000000 O    0  0  0  0  0  0  0
 -3.151759 -1.261236  0.000000 C    0  0  0  0  0  0  0
  0.768946  2.390267  0.000000 C    0  0  0  0  0  0  0
  0.262965  3.041887  0.000000 F    0  0  0  0  0  0  0
  1.586255  2.502650  0.000000 F    0  0  0  0  0  0  0
  1.080274  3.154270  0.000000 F    0  0  0  0  0  0  0
  3.819681  0.733410  0.000000 C    0  0  0  0  0  0  0
  4.492935  0.256592  0.000000 F    0  0  0  0  0  0  0
  3.895991  1.554873  0.000000 F    0  0  0  0  0  0  0
  4.569244  1.078055  0.000000 F    0  0  0  0  0  0  0
  0.351959 -3.154270  0.000000 F    0  0  0  0  0  0  0
 -1.030090 -2.791208  0.000000 F    0  0  0  0  0  0  0
 -3.912631 -1.580137  0.000000 C    0  0  0  0  0  0  0
 -4.569244 -1.080652  0.000000 F    0  0  0  0  0  0  0
 -4.016891 -2.398522  0.000000 F    0  0  0  0  0  0  0
 -3.808372 -0.761751  0.000000 F    0  0  0  0  0  0  0
 -0.234259 -2.573775  0.000000 C    0  0  0  0  0  0  0
  0.561573 -2.356343  0.000000 F    0  0  0  0  0  0  0
  2  1  1  0  0  0  0
  2  3  1  0  0  0  0
  1  4  1  0  0  0  0
  3  5  4  0  0  0  0
  4  5  4  0  0  0  0
  2  6  1  0  0  0  0
  1  7  1  0  0  0  0
  6  8  4  0  0  0  0
  7  8  4  0  0  0  0
  2  9  1  0  0  0  0
 10 11  1  0  0  0  0
 11 12  4  0  0  0  0
  9 12  4  0  0  0  0
  2 13  1  0  0  0  0
  1 14  1  0  0  0  0
 13 15  4  0  0  0  0
 14 15  4  0  0  0  0
  5 16  1  0  0  0  0
 16 17  1  0  0  0  0
 16 18  1  0  0  0  0
 16 19  1  0  0  0  0
  8 20  1  0  0  0  0
 20 21  1  0  0  0  0
 20 22  1  0  0  0  0
 20 23  1  0  0  0  0
 12 30  1  0  0  0  0
 30 24  1  0  0  0  0
 30 25  1  0  0  0  0
 15 26  1  0  0  0  0
 26 27  1  0  0  0  0
 26 28  1  0  0  0  0
 26 29  1  0  0  0  0
 30 31  1  0  0  0  0
M  END
> <NMREDATA_VERSION>
1.1

> <NMREDATA_LEVEL>
0

> <NMREDATA_SOLVENT>
CD3CN

> <NMREDATA_TEMPERATURE>
298

> <NMREDATA_FORMULA>
C9H8BiF12O8Rh

> <NMREDATA_SMILES>
COC(C(F)(F)F)O[Rh]123OC(O[BiH]3(OC(O2)C(F)(F)F)OC(O1)C(F)(F)F)C(F)(F)F

> <NMREDATA_ASSIGNMENT>
Rh2, 6858.00, 2

> <NMREDATA_1D_103Rh>
6858.00, L=Rh2

$$$$
RhMan0925_0070.mol
  ChemDraw12142515522D

M  V30 COUNTS 19 21 0 0 0
 -0.320908  0.171144  0.000000 Bi   0  0  0  0  0  0  0
  0.882218 -0.619482  0.000000 Rh   0  0  0  0  0  0  0
  0.916593  0.893019  0.000000 O    0  0  0  0  0  0  0
 -0.389658  1.408644  0.000000 O    0  0  0  0  0  0  0
  0.504092  1.718019  0.000000 C    0  0  0  0  0  0  0
  2.257218 -0.481982  0.000000 O    0  0  0  0  0  0  0
  1.397843  0.446143  0.000000 O    0  0  0  0  0  0  0
  3.116594  0.480519  0.000000 C    0  0  0  0  0  0  0
  0.882218 -1.444482  0.000000 O    0  0  0  0  0  0  0
 -0.561533 -0.275732  0.000000 C    0  0  0  0  0  0  0
 -0.561533 -1.100732  0.000000 O    0  0  0  0  0  0  0
  0.021830 -1.684094  0.000000 C    0  0  0  0  0  0  0
 -1.214658 -1.066357  0.000000 O    0  0  0  0  0  0  0
 -1.936533 -0.103856  0.000000 O    0  0  0  0  0  0  0
 -3.105284 -1.169482  0.000000 C    0  0  0  0  0  0  0
  0.815421  2.482021  0.000000 C    0  0  0  0  0  0  0
  3.866156  0.825164  0.000000 C    0  0  0  0  0  0  0
 -3.866156 -1.488383  0.000000 C    0  0  0  0  0  0  0
 -0.187783 -2.482021  0.000000 C    0  0  0  0  0  0  0
  2  1  1  0  0  0  0
  2  3  1  0  0  0  0
  1  4  1  0  0  0  0
  3  5  4  0  0  0  0
  4  5  4  0  0  0  0
  2  6  1  0  0  0  0
  1  7  1  0  0  0  0
  6  8  4  0  0  0  0
  7  8  4  0  0  0  0
  2  9  1  0  0  0  0
 10 11  1  0  0  0  0
 11 12  4  0  0  0  0
  9 12  4  0  0  0  0
  2 13  1  0  0  0  0
  1 14  1  0  0  0  0
 13 15  4  0  0  0  0
 14 15  4  0  0  0  0
  5 16  1  0  0  0  0
  8 17  1  0  0  0  0
 12 19  1  0  0  0  0
 15 18  1  0  0  0  0
M  END
> <NMREDATA_VERSION>
1.1

> <NMREDATA_LEVEL>
0

> <NMREDATA_SOLVENT>
CD3CN

> <NMREDATA_TEMPERATURE>
298

> <NMREDATA_FORMULA>
C9H20BiO8Rh

> <NMREDATA_SMILES>
COC(O[Rh]123OC(O[BiH]3(OC(O2)C)OC(O1)C)C)C

> <NMREDATA_ASSIGNMENT>
Rh2, 6423.00, 2

> <NMREDATA_1D_103Rh>
6423.00, L=Rh2

$$$$
RhMan0925_0071.mol
  ChemDraw12142515532D

M  V30 COUNTS 19 21 0 0 0
 -0.320908  0.171144  0.000000 Bi   0  0  0  0  0  0  0
  0.882218 -0.619482  0.000000 Rh   0  0  0  0  0  0  0
  0.916593  0.893019  0.000000 O    0  0  0  0  0  0  0
 -0.389658  1.408644  0.000000 O    0  0  0  0  0  0  0
  0.504092  1.718019  0.000000 C    0  0  0  0  0  0  0
  2.257218 -0.481982  0.000000 O    0  0  0  0  0  0  0
  1.397843  0.446143  0.000000 O    0  0  0  0  0  0  0
  3.116594  0.480519  0.000000 C    0  0  0  0  0  0  0
  0.882218 -1.444482  0.000000 O    0  0  0  0  0  0  0
 -0.561533 -0.275732  0.000000 C    0  0  0  0  0  0  0
 -0.561533 -1.100732  0.000000 O    0  0  0  0  0  0  0
  0.021830 -1.684094  0.000000 C    0  0  0  0  0  0  0
 -1.214658 -1.066357  0.000000 O    0  0  0  0  0  0  0
 -1.936533 -0.103856  0.000000 O    0  0  0  0  0  0  0
 -3.105284 -1.169482  0.000000 C    0  0  0  0  0  0  0
  0.815421  2.482021  0.000000 H    0  0  0  0  0  0  0
  3.866156  0.825164  0.000000 H    0  0  0  0  0  0  0
 -3.866156 -1.488383  0.000000 H    0  0  0  0  0  0  0
 -0.187783 -2.482021  0.000000 H    0  0  0  0  0  0  0
  2  1  1  0  0  0  0
  2  3  1  0  0  0  0
  1  4  1  0  0  0  0
  3  5  4  0  0  0  0
  4  5  4  0  0  0  0
  2  6  1  0  0  0  0
  1  7  1  0  0  0  0
  6  8  4  0  0  0  0
  7  8  4  0  0  0  0
  2  9  1  0  0  0  0
 10 11  1  0  0  0  0
 11 12  4  0  0  0  0
  9 12  4  0  0  0  0
  2 13  1  0  0  0  0
  1 14  1  0  0  0  0
 13 15  4  0  0  0  0
 14 15  4  0  0  0  0
  5 16  1  0  0  0  0
  8 17  1  0  0  0  0
 12 19  1  0  0  0  0
 15 18  1  0  0  0  0
M  END
> <NMREDATA_VERSION>
1.1

> <NMREDATA_LEVEL>
0

> <NMREDATA_SOLVENT>
CD3CN

> <NMREDATA_TEMPERATURE>
298

> <NMREDATA_FORMULA>
C5H12BiO8Rh

> <NMREDATA_SMILES>
COCO[Rh]123OCO[BiH]3(OCO2)OCO1

> <NMREDATA_ASSIGNMENT>
Rh2, 6445.00, 2

> <NMREDATA_1D_103Rh>
6445.00, L=Rh2

$$$$
RhMan0925_0072.mol
  ChemDraw12152509472D

M  V30 COUNTS 43 49 0 0 0
 -0.274809  0.611578  0.000000 Bi   0  0  0  0  0  0  0
  0.928316 -0.179048  0.000000 Rh   0  0  0  0  0  0  0
  0.962692  1.333452  0.000000 O    0  0  0  0  0  0  0
 -0.343559  1.849078  0.000000 O    0  0  0  0  0  0  0
  0.550191  2.158453  0.000000 C    0  0  0  0  0  0  0
  2.303317 -0.041548  0.000000 O    0  0  0  0  0  0  0
  1.443941  0.886577  0.000000 O    0  0  0  0  0  0  0
  3.162692  0.920952  0.000000 C    0  0  0  0  0  0  0
  0.928316 -1.004048  0.000000 O    0  0  0  0  0  0  0
 -0.515434  0.164702  0.000000 C    0  0  0  0  0  0  0
 -0.515434 -0.660298  0.000000 O    0  0  0  0  0  0  0
  0.067929 -1.243661  0.000000 C    0  0  0  0  0  0  0
 -1.168560 -0.625923  0.000000 O    0  0  0  0  0  0  0
 -1.890435  0.336577  0.000000 O    0  0  0  0  0  0  0
 -3.059186 -0.729048  0.000000 C    0  0  0  0  0  0  0
  0.550191  2.983453  0.000000 C    0  0  0  0  0  0  0
  3.912255  1.265598  0.000000 C    0  0  0  0  0  0  0
 -3.820058 -1.047949  0.000000 C    0  0  0  0  0  0  0
 -0.141685 -2.041587  0.000000 C    0  0  0  0  0  0  0
 -0.164280  3.395953  0.000000 C    0  0  0  0  0  0  0
  1.264662  3.395953  0.000000 C    0  0  0  0  0  0  0
  0.550191  3.808453  0.000000 C    0  0  0  0  0  0  0
  2.061551  3.182428  0.000000 C    0  0  0  0  0  0  0
  4.585508  0.788780  0.000000 C    0  0  0  0  0  0  0
  3.912255  2.090598  0.000000 C    0  0  0  0  0  0  0
  2.275077  2.385539  0.000000 C    0  0  0  0  0  0  0
  3.071965  2.172013  0.000000 C    0  0  0  0  0  0  0
  3.655329  2.755376  0.000000 C    0  0  0  0  0  0  0
  3.441803  3.552265  0.000000 C    0  0  0  0  0  0  0
  2.644914  3.765790  0.000000 C    0  0  0  0  0  0  0
  4.645058  1.644576  0.000000 C    0  0  0  0  0  0  0
 -4.403421 -0.464586  0.000000 C    0  0  0  0  0  0  0
 -4.645058 -1.047949  0.000000 C    0  0  0  0  0  0  0
 -4.033584 -1.844838  0.000000 C    0  0  0  0  0  0  0
 -3.450221 -2.428201  0.000000 C    0  0  0  0  0  0  0
  0.572786 -2.454087  0.000000 C    0  0  0  0  0  0  0
  0.071841 -2.838477  0.000000 C    0  0  0  0  0  0  0
 -0.725048 -2.624951  0.000000 C    0  0  0  0  0  0  0
 -3.663746 -3.225090  0.000000 C    0  0  0  0  0  0  0
 -3.080383 -3.808453  0.000000 C    0  0  0  0  0  0  0
 -2.283494 -3.594928  0.000000 C    0  0  0  0  0  0  0
 -2.069969 -2.798039  0.000000 C    0  0  0  0  0  0  0
 -2.653332 -2.214676  0.000000 C    0  0  0  0  0  0  0
  2  1  1  0  0  0  0
  2  3  1  0  0  0  0
  1  4  1  0  0  0  0
  3  5  4  0  0  0  0
  4  5  4  0  0  0  0
  2  6  1  0  0  0  0
  1  7  1  0  0  0  0
  6  8  4  0  0  0  0
  7  8  4  0  0  0  0
  2  9  1  0  0  0  0
 10 11  1  0  0  0  0
 11 12  4  0  0  0  0
  9 12  4  0  0  0  0
  2 13  1  0  0  0  0
  1 14  1  0  0  0  0
 13 15  4  0  0  0  0
 14 15  4  0  0  0  0
  5 16  1  0  0  0  0
  8 17  1  0  0  0  0
 12 19  1  0  0  0  0
 15 18  1  0  0  0  0
 16 20  1  0  0  0  0
 16 21  1  0  0  0  0
 16 22  1  0  0  0  0
 21 23  1  0  0  0  0
 17 24  1  0  0  0  0
 17 25  1  0  0  0  0
 23 26  2  0  0  0  0
 26 27  1  0  0  0  0
 27 28  2  0  0  0  0
 28 29  1  0  0  0  0
 29 30  2  0  0  0  0
 30 23  1  0  0  0  0
 25 27  1  0  0  0  0
 17 31  1  0  0  0  0
 18 32  1  0  0  0  0
 18 33  1  0  0  0  0
 18 34  1  0  0  0  0
 34 35  1  0  0  0  0
 19 36  1  0  0  0  0
 19 37  1  0  0  0  0
 19 38  1  0  0  0  0
 35 39  2  0  0  0  0
 39 40  1  0  0  0  0
 40 41  2  0  0  0  0
 41 42  1  0  0  0  0
 42 43  2  0  0  0  0
 43 35  1  0  0  0  0
 38 42  1  0  0  0  0
M  END
> <NMREDATA_VERSION>
1.1

> <NMREDATA_LEVEL>
0

> <NMREDATA_SOLVENT>
THF-d8

> <NMREDATA_TEMPERATURE>
298

> <NMREDATA_FORMULA>
C33H48BiO8Rh

> <NMREDATA_SMILES>
COC1O[Rh]234OC(O[BiH]54OC(O3)C(C)(C)Cc3cc(CC(C(O2)O5)(C)C)ccc3)C(C)(C)Cc2cc(CC1(C)C)ccc2

> <NMREDATA_ASSIGNMENT>
Rh2, 6323.00, 2

> <NMREDATA_1D_103Rh>
6323.00, L=Rh2

$$$$
RhMan0925_0073.mol
  ChemDraw12152510332D

M  V30 COUNTS 51 66 0 0 0
 -0.060449  0.771777  0.000000 Rh   0  0  0  0  0  0  0
  0.352050  1.486248  0.000000 C    0  0  0  0  0  0  0
  1.177050  1.486248  0.000000 C    0  0  0  0  0  0  0
  1.589551  2.200719  0.000000 C    0  0  0  0  0  0  0
  1.177050  2.915189  0.000000 C    0  0  0  0  0  0  0
  0.352050  2.915189  0.000000 C    0  0  0  0  0  0  0
 -0.060449  2.200719  0.000000 C    0  0  0  0  0  0  0
 -0.885449  2.200719  0.000000 C    0  0  0  0  0  0  0
 -1.297950  2.915189  0.000000 C    0  0  0  0  0  0  0
 -2.122950  2.915189  0.000000 C    0  0  0  0  0  0  0
 -2.535449  2.200719  0.000000 C    0  0  0  0  0  0  0
 -2.122950  1.486248  0.000000 C    0  0  0  0  0  0  0
 -1.297950  1.486248  0.000000 C    0  0  0  0  0  0  0
 -0.679200 -0.706349  0.000000 C    0  0  0  0  0  0  0
 -1.091700 -1.420820  0.000000 C    0  0  0  0  0  0  0
 -1.393670 -0.293849  0.000000 C    0  0  0  0  0  0  0
 -1.806171 -1.008320  0.000000 C    0  0  0  0  0  0  0
 -1.882326 -0.568849  0.000000 C    0  0  0  0  0  0  0
 -1.401075  0.049901  0.000000 C    0  0  0  0  0  0  0
 -2.520642 -1.420820  0.000000 C    0  0  0  0  0  0  0
 -2.190560 -0.507375  0.000000 C    0  0  0  0  0  0  0
 -2.816586  0.235208  0.000000 C    0  0  0  0  0  0  0
 -3.772693  0.064345  0.000000 C    0  0  0  0  0  0  0
 -4.102776 -0.849101  0.000000 C    0  0  0  0  0  0  0
 -3.476749 -1.591683  0.000000 C    0  0  0  0  0  0  0
 -2.536208  1.011103  0.000000 F    0  0  0  0  0  0  0
 -4.304449  0.695106  0.000000 F    0  0  0  0  0  0  0
 -4.914909 -0.994235  0.000000 F    0  0  0  0  0  0  0
 -3.757127 -2.367579  0.000000 F    0  0  0  0  0  0  0
  0.654022  0.359276  0.000000 P    0  0  0  0  0  0  0
  0.190888 -0.852690  0.000000 C    0  0  0  0  0  0  0
  0.190888 -1.677690  0.000000 C    0  0  0  0  0  0  0
  0.905359 -2.090189  0.000000 C    0  0  0  0  0  0  0
  1.619830 -1.677690  0.000000 C    0  0  0  0  0  0  0
  1.619830 -0.852690  0.000000 C    0  0  0  0  0  0  0
  0.905359 -0.440189  0.000000 C    0  0  0  0  0  0  0
  2.341394 -0.389503  0.000000 C    0  0  0  0  0  0  0
  2.341394 -1.214503  0.000000 C    0  0  0  0  0  0  0
  3.055865 -1.627004  0.000000 C    0  0  0  0  0  0  0
  3.770337 -1.214503  0.000000 C    0  0  0  0  0  0  0
  3.770337 -0.389503  0.000000 C    0  0  0  0  0  0  0
  3.055865  0.022996  0.000000 C    0  0  0  0  0  0  0
  2.771496  1.926427  0.000000 C    0  0  0  0  0  0  0
  2.771496  1.101427  0.000000 C    0  0  0  0  0  0  0
  3.485967  0.688926  0.000000 C    0  0  0  0  0  0  0
  4.200438  1.101427  0.000000 C    0  0  0  0  0  0  0
  4.200438  1.926427  0.000000 C    0  0  0  0  0  0  0
  3.485967  2.338926  0.000000 C    0  0  0  0  0  0  0
  4.914909  2.338926  0.000000 F    0  0  0  0  0  0  0
  4.484808 -1.627004  0.000000 F    0  0  0  0  0  0  0
  0.905359 -2.915189  0.000000 F    0  0  0  0  0  0  0
  1  2  2  0  0  0  0
  2  3  1  0  0  0  0
  3  4  1  0  0  0  0
  4  5  1  0  0  0  0
  5  6  1  0  0  0  0
  6  7  1  0  0  0  0
  7  2  1  0  0  0  0
  7  8  1  0  0  0  0
  8  9  2  0  0  0  0
  9 10  1  0  0  0  0
 10 11  2  0  0  0  0
 11 12  1  0  0  0  0
 12 13  2  0  0  0  0
 13  8  1  0  0  0  0
  1  7  1  0  0  0  0
  1  6  1  0  0  0  0
  1  5  1  0  0  0  0
  1  4  1  0  0  0  0
  1  3  1  0  0  0  0
 14 15  2  0  0  0  0
 14 16  1  0  0  0  0
 15 17  1  0  0  0  0
 17 18  1  0  0  0  0
 18 19  2  0  0  0  0
 16 19  1  0  0  0  0
 17 20  1  0  0  0  0
 16 21  1  0  0  0  0
 20 21  2  0  0  0  0
 18  1  1  0  0  0  0
 19  1  1  0  0  0  0
 15  1  1  0  0  0  0
 14  1  1  0  0  0  0
 21 22  1  0  0  0  0
 22 23  2  0  0  0  0
 23 24  1  0  0  0  0
 24 25  2  0  0  0  0
 25 20  1  0  0  0  0
 22 26  1  0  0  0  0
 23 27  1  0  0  0  0
 24 28  1  0  0  0  0
 25 29  1  0  0  0  0
  1 30  1  0  0  0  0
 31 32  2  0  0  0  0
 32 33  1  0  0  0  0
 33 34  2  0  0  0  0
 34 35  1  0  0  0  0
 35 36  2  0  0  0  0
 36 31  1  0  0  0  0
 37 38  2  0  0  0  0
 38 39  1  0  0  0  0
 39 40  2  0  0  0  0
 40 41  1  0  0  0  0
 41 42  2  0  0  0  0
 42 37  1  0  0  0  0
 43 44  2  0  0  0  0
 44 45  1  0  0  0  0
 45 46  2  0  0  0  0
 46 47  1  0  0  0  0
 47 48  2  0  0  0  0
 48 43  1  0  0  0  0
 30 36  1  0  0  0  0
 30 37  1  0  0  0  0
 30 44  1  0  0  0  0
 47 49  1  0  0  0  0
 40 50  1  0  0  0  0
 33 51  1  0  0  0  0
M  END
> <NMREDATA_VERSION>
1.1

> <NMREDATA_LEVEL>
0

> <NMREDATA_SOLVENT>
CD2Cl2

> <NMREDATA_TEMPERATURE>
298

> <NMREDATA_FORMULA>
C42H24F7PRh

> <NMREDATA_SMILES>
Fc1ccc(cc1)P([Rh]12345678(=C9C6C4C5C7C89c4ccccc4)C4=C3C3C2=C1C4c1c3c(F)c(c(c1F)F)F)(c1ccc(cc1)F)c1ccc(cc1)F

> <NMREDATA_ASSIGNMENT>
Rh1, 695.00, 1

> <NMREDATA_1D_103Rh>
695.00, L=Rh1

$$$$
RhMan0925_0074.mol
  ChemDraw12152510422D

M  V30 COUNTS 20 25 0 0 0
  0.051593 -0.896397  0.000000 Rh   0  0  0  0  0  0  0
  0.051593 -0.071397  0.000000 C    0  0  0  0  0  0  0
  0.766064  0.341104  0.000000 C    0  0  0  0  0  0  0
  0.766064  1.166104  0.000000 C    0  0  0  0  0  0  0
  0.051593  1.578603  0.000000 C    0  0  0  0  0  0  0
 -0.662878  1.166104  0.000000 C    0  0  0  0  0  0  0
 -0.662878  0.341104  0.000000 C    0  0  0  0  0  0  0
 -1.435306  0.051310  0.000000 C    0  0  0  0  0  0  0
 -1.377349  1.578603  0.000000 C    0  0  0  0  0  0  0
  0.051593  2.403603  0.000000 C    0  0  0  0  0  0  0
  1.480535  1.578603  0.000000 C    0  0  0  0  0  0  0
  1.583314  0.228290  0.000000 C    0  0  0  0  0  0  0
 -0.874779 -1.525006  0.000000 P    0  0  0  0  0  0  0
  1.011049 -1.822769  0.000000 P    0  0  0  0  0  0  0
 -1.377349 -0.896397  0.000000 C    0  0  0  0  0  0  0
 -0.662878 -2.133896  0.000000 C    0  0  0  0  0  0  0
 -1.596930 -1.923907  0.000000 C    0  0  0  0  0  0  0
  0.421430 -2.276649  0.000000 C    0  0  0  0  0  0  0
  1.431845 -1.266234  0.000000 C    0  0  0  0  0  0  0
  1.596930 -2.403603  0.000000 C    0  0  0  0  0  0  0
  1  2  1  0  0  0  0
  2  3  1  0  0  0  0
  3  4  1  0  0  0  0
  4  5  1  0  0  0  0
  5  6  1  0  0  0  0
  6  7  1  0  0  0  0
  7  2  1  0  0  0  0
  1  3  1  0  0  0  0
  1  7  1  0  0  0  0
  1  4  1  0  0  0  0
  1  5  1  0  0  0  0
  1  6  1  0  0  0  0
  7  8  1  0  0  0  0
  6  9  1  0  0  0  0
  5 10  1  0  0  0  0
  4 11  1  0  0  0  0
  3 12  1  0  0  0  0
  1 13  1  0  0  0  0
  1 14  1  0  0  0  0
 13 15  1  0  0  0  0
 13 16  1  0  0  0  0
 13 17  1  0  0  0  0
 14 18  1  0  0  0  0
 14 19  1  0  0  0  0
 14 20  1  0  0  0  0
M  END
> <NMREDATA_VERSION>
1.1

> <NMREDATA_LEVEL>
0

> <NMREDATA_SOLVENT>
C6D5Br

> <NMREDATA_TEMPERATURE>
298

> <NMREDATA_FORMULA>
C17H36P2Rh

> <NMREDATA_SMILES>
CP([Rh]12345(C6C3(C2(C5(C1(C46C)C)C)C)C)P(C)(C)C)(C)C

> <NMREDATA_ASSIGNMENT>
Rh1, -796.00, 1

> <NMREDATA_1D_103Rh>
-796.00, L=Rh1

$$$$
RhMan0925_0075.mol
  ChemDraw12152510472D

M  V30 COUNTS 78 86 0 0 0
 -4.216921  0.016542  0.000000 Rh   0  0  0  0  0  0  0
 -4.216921  0.841542  0.000000 C    0  0  0  0  0  0  0
 -3.502450  1.254043  0.000000 C    0  0  0  0  0  0  0
 -3.502450  2.079043  0.000000 C    0  0  0  0  0  0  0
 -4.216921  2.491542  0.000000 C    0  0  0  0  0  0  0
 -4.931392  2.079043  0.000000 C    0  0  0  0  0  0  0
 -4.931392  1.254043  0.000000 C    0  0  0  0  0  0  0
 -5.703820  0.964249  0.000000 C    0  0  0  0  0  0  0
 -5.645863  2.491542  0.000000 C    0  0  0  0  0  0  0
 -4.216921  3.316542  0.000000 C    0  0  0  0  0  0  0
 -2.787979  2.491542  0.000000 C    0  0  0  0  0  0  0
 -2.685200  1.141229  0.000000 C    0  0  0  0  0  0  0
 -5.143293 -0.612067  0.000000 P    0  0  0  0  0  0  0
 -3.257465 -0.909830  0.000000 P    0  0  0  0  0  0  0
 -5.645863  0.016542  0.000000 C    0  0  0  0  0  0  0
 -4.931392 -1.220957  0.000000 C    0  0  0  0  0  0  0
 -5.865445 -1.010968  0.000000 C    0  0  0  0  0  0  0
 -3.847084 -1.363710  0.000000 C    0  0  0  0  0  0  0
 -2.836669 -0.353295  0.000000 C    0  0  0  0  0  0  0
 -2.671584 -1.490664  0.000000 C    0  0  0  0  0  0  0
 -1.603229  1.207592  0.000000 Li   0  3  0  0  0  0  0
  2.565445 -0.016542  0.000000 B    0  5  0  0  0  0  0
  2.565445 -0.841542  0.000000 C    0  0  0  0  0  0  0
  1.740445 -0.016542  0.000000 C    0  0  0  0  0  0  0
  3.390445 -0.016542  0.000000 C    0  0  0  0  0  0  0
  2.565445  0.808458  0.000000 C    0  0  0  0  0  0  0
  3.279916  1.220957  0.000000 C    0  0  0  0  0  0  0
  3.279916  2.045957  0.000000 C    0  0  0  0  0  0  0
  2.565445  2.458458  0.000000 C    0  0  0  0  0  0  0
  1.850973  2.045957  0.000000 C    0  0  0  0  0  0  0
  1.850973  1.220957  0.000000 C    0  0  0  0  0  0  0
  1.327944  0.697929  0.000000 C    0  0  0  0  0  0  0
  0.502944  0.697929  0.000000 C    0  0  0  0  0  0  0
  0.090445 -0.016542  0.000000 C    0  0  0  0  0  0  0
  0.502944 -0.731013  0.000000 C    0  0  0  0  0  0  0
  1.327944 -0.731013  0.000000 C    0  0  0  0  0  0  0
  1.850973 -1.254043  0.000000 C    0  0  0  0  0  0  0
  1.850973 -2.079043  0.000000 C    0  0  0  0  0  0  0
  2.565445 -2.491542  0.000000 C    0  0  0  0  0  0  0
  3.279916 -2.079043  0.000000 C    0  0  0  0  0  0  0
  3.279916 -1.254043  0.000000 C    0  0  0  0  0  0  0
  3.802944 -0.731013  0.000000 C    0  0  0  0  0  0  0
  4.627944 -0.731013  0.000000 C    0  0  0  0  0  0  0
  5.040445 -0.016542  0.000000 C    0  0  0  0  0  0  0
  4.627944  0.697929  0.000000 C    0  0  0  0  0  0  0
  3.802944  0.697929  0.000000 C    0  0  0  0  0  0  0
  0.090445  1.412399  0.000000 C    0  0  0  0  0  0  0
  1.136502  2.458458  0.000000 C    0  0  0  0  0  0  0
  3.994387  2.458458  0.000000 C    0  0  0  0  0  0  0
  5.040445  1.412399  0.000000 C    0  0  0  0  0  0  0
  5.040445 -1.445484  0.000000 C    0  0  0  0  0  0  0
  3.994387 -2.491542  0.000000 C    0  0  0  0  0  0  0
  1.136502 -2.491542  0.000000 C    0  0  0  0  0  0  0
 -0.734555 -1.445484  0.000000 F    0  0  0  0  0  0  0
 -0.322056 -2.159955  0.000000 F    0  0  0  0  0  0  0
  1.153590 -3.316365  0.000000 F    0  0  0  0  0  0  0
  1.859364 -2.889155  0.000000 F    0  0  0  0  0  0  0
  0.422031 -2.904043  0.000000 F    0  0  0  0  0  0  0
  4.708857 -2.079043  0.000000 F    0  0  0  0  0  0  0
  3.994387 -3.316542  0.000000 F    0  0  0  0  0  0  0
  4.708857 -2.904043  0.000000 F    0  0  0  0  0  0  0
  4.325973 -1.857984  0.000000 C    0  0  0  0  0  0  0
  5.837333 -1.659010  0.000000 F    0  0  0  0  0  0  0
  5.542672 -0.790968  0.000000 F    0  0  0  0  0  0  0
  4.627944  2.126870  0.000000 F    0  0  0  0  0  0  0
  5.865445  1.412399  0.000000 F    0  0  0  0  0  0  0
  5.452944  2.126870  0.000000 F    0  0  0  0  0  0  0
  4.207912  1.661569  0.000000 F    0  0  0  0  0  0  0
  4.310100  3.220658  0.000000 F    0  0  0  0  0  0  0
  3.374118  3.002418  0.000000 F    0  0  0  0  0  0  0
  0.422031  2.045957  0.000000 F    0  0  0  0  0  0  0
  1.136502  3.283458  0.000000 F    0  0  0  0  0  0  0
  1.850973  2.870957  0.000000 F    0  0  0  0  0  0  0
  0.804916  1.824900  0.000000 F    0  0  0  0  0  0  0
 -0.706445  1.625925  0.000000 F    0  0  0  0  0  0  0
 -0.564072  0.910172  0.000000 F    0  0  0  0  0  0  0
  0.090445 -1.445484  0.000000 C    0  0  0  0  0  0  0
  0.502944 -2.159955  0.000000 F    0  0  0  0  0  0  0
  1  2  1  0  0  0  0
  2  3  1  0  0  0  0
  3  4  1  0  0  0  0
  4  5  1  0  0  0  0
  5  6  1  0  0  0  0
  6  7  1  0  0  0  0
  7  2  1  0  0  0  0
  1  3  1  0  0  0  0
  1  7  1  0  0  0  0
  1  4  1  0  0  0  0
  1  5  1  0  0  0  0
  1  6  1  0  0  0  0
  7  8  1  0  0  0  0
  6  9  1  0  0  0  0
  5 10  1  0  0  0  0
  4 11  1  0  0  0  0
  3 12  1  0  0  0  0
  1 13  1  0  0  0  0
  1 14  1  0  0  0  0
 13 15  1  0  0  0  0
 13 16  1  0  0  0  0
 13 17  1  0  0  0  0
 14 18  1  0  0  0  0
 14 19  1  0  0  0  0
 14 20  1  0  0  0  0
  1 21  9  0  0  0  0
 22 23  1  0  0  0  0
 22 24  1  0  0  0  0
 22 25  1  0  0  0  0
 22 26  1  0  0  0  0
 26 27  2  0  0  0  0
 27 28  1  0  0  0  0
 28 29  2  0  0  0  0
 29 30  1  0  0  0  0
 30 31  2  0  0  0  0
 31 26  1  0  0  0  0
 24 32  2  0  0  0  0
 32 33  1  0  0  0  0
 33 34  2  0  0  0  0
 34 35  1  0  0  0  0
 35 36  2  0  0  0  0
 36 24  1  0  0  0  0
 23 37  2  0  0  0  0
 37 38  1  0  0  0  0
 38 39  2  0  0  0  0
 39 40  1  0  0  0  0
 40 41  2  0  0  0  0
 41 23  1  0  0  0  0
 25 42  2  0  0  0  0
 42 43  1  0  0  0  0
 43 44  2  0  0  0  0
 44 45  1  0  0  0  0
 45 46  2  0  0  0  0
 46 25  1  0  0  0  0
 35 77  1  0  0  0  0
 33 47  1  0  0  0  0
 30 48  1  0  0  0  0
 28 49  1  0  0  0  0
 45 50  1  0  0  0  0
 43 51  1  0  0  0  0
 40 52  1  0  0  0  0
 38 53  1  0  0  0  0
 77 54  1  0  0  0  0
 77 55  1  0  0  0  0
 53 56  1  0  0  0  0
 53 57  1  0  0  0  0
 53 58  1  0  0  0  0
 52 59  1  0  0  0  0
 52 60  1  0  0  0  0
 52 61  1  0  0  0  0
 51 62  1  0  0  0  0
 51 63  1  0  0  0  0
 51 64  1  0  0  0  0
 50 65  1  0  0  0  0
 50 66  1  0  0  0  0
 50 67  1  0  0  0  0
 49 68  1  0  0  0  0
 49 69  1  0  0  0  0
 49 70  1  0  0  0  0
 48 71  1  0  0  0  0
 48 72  1  0  0  0  0
 48 73  1  0  0  0  0
 47 74  1  0  0  0  0
 47 75  1  0  0  0  0
 47 76  1  0  0  0  0
 77 78  1  0  0  0  0
M  END
> <NMREDATA_VERSION>
1.1

> <NMREDATA_LEVEL>
0

> <NMREDATA_SOLVENT>
C6D5Br

> <NMREDATA_TEMPERATURE>
298

> <NMREDATA_FORMULA>
C50H51BF23LiP2Rh

> <NMREDATA_SMILES>
CP([Rh]12345([Li])(C6C3(C2(C5(C1(C46C)C)C)C)C)P(C)(C)C)(C)C.CC(c1cc(cc(c1)C(F)(F)F)[B](c1cc(cc(c1)C(F)(F)F)C(F)(F)F)(c1cc(cc(c1)C(F)(F)F)C(F)(F)F)c1cc(cc(c1)C(F)(F)F)C(F)(F)F)(F)F

> <NMREDATA_ASSIGNMENT>
Rh1, -892.00, 1

> <NMREDATA_1D_103Rh>
-892.00, L=Rh1

$$$$
RhMan0925_0076.mol
  ChemDraw12152510482D

M  V30 COUNTS 78 86 0 0 0
 -4.216921  0.016542  0.000000 Rh   0  0  0  0  0  0  0
 -4.216921  0.841542  0.000000 C    0  0  0  0  0  0  0
 -3.502450  1.254043  0.000000 C    0  0  0  0  0  0  0
 -3.502450  2.079043  0.000000 C    0  0  0  0  0  0  0
 -4.216921  2.491542  0.000000 C    0  0  0  0  0  0  0
 -4.931392  2.079043  0.000000 C    0  0  0  0  0  0  0
 -4.931392  1.254043  0.000000 C    0  0  0  0  0  0  0
 -5.703820  0.964249  0.000000 C    0  0  0  0  0  0  0
 -5.645863  2.491542  0.000000 C    0  0  0  0  0  0  0
 -4.216921  3.316542  0.000000 C    0  0  0  0  0  0  0
 -2.787979  2.491542  0.000000 C    0  0  0  0  0  0  0
 -2.685200  1.141229  0.000000 C    0  0  0  0  0  0  0
 -5.143293 -0.612067  0.000000 P    0  0  0  0  0  0  0
 -3.257465 -0.909830  0.000000 P    0  0  0  0  0  0  0
 -5.645863  0.016542  0.000000 C    0  0  0  0  0  0  0
 -4.931392 -1.220957  0.000000 C    0  0  0  0  0  0  0
 -5.865445 -1.010968  0.000000 C    0  0  0  0  0  0  0
 -3.847084 -1.363710  0.000000 C    0  0  0  0  0  0  0
 -2.836669 -0.353295  0.000000 C    0  0  0  0  0  0  0
 -2.671584 -1.490664  0.000000 C    0  0  0  0  0  0  0
 -1.603229  1.207592  0.000000 Na   0  3  0  0  0  0  0
  2.565445 -0.016542  0.000000 B    0  5  0  0  0  0  0
  2.565445 -0.841542  0.000000 C    0  0  0  0  0  0  0
  1.740445 -0.016542  0.000000 C    0  0  0  0  0  0  0
  3.390445 -0.016542  0.000000 C    0  0  0  0  0  0  0
  2.565445  0.808458  0.000000 C    0  0  0  0  0  0  0
  3.279916  1.220957  0.000000 C    0  0  0  0  0  0  0
  3.279916  2.045957  0.000000 C    0  0  0  0  0  0  0
  2.565445  2.458458  0.000000 C    0  0  0  0  0  0  0
  1.850973  2.045957  0.000000 C    0  0  0  0  0  0  0
  1.850973  1.220957  0.000000 C    0  0  0  0  0  0  0
  1.327944  0.697929  0.000000 C    0  0  0  0  0  0  0
  0.502944  0.697929  0.000000 C    0  0  0  0  0  0  0
  0.090445 -0.016542  0.000000 C    0  0  0  0  0  0  0
  0.502944 -0.731013  0.000000 C    0  0  0  0  0  0  0
  1.327944 -0.731013  0.000000 C    0  0  0  0  0  0  0
  1.850973 -1.254043  0.000000 C    0  0  0  0  0  0  0
  1.850973 -2.079043  0.000000 C    0  0  0  0  0  0  0
  2.565445 -2.491542  0.000000 C    0  0  0  0  0  0  0
  3.279916 -2.079043  0.000000 C    0  0  0  0  0  0  0
  3.279916 -1.254043  0.000000 C    0  0  0  0  0  0  0
  3.802944 -0.731013  0.000000 C    0  0  0  0  0  0  0
  4.627944 -0.731013  0.000000 C    0  0  0  0  0  0  0
  5.040445 -0.016542  0.000000 C    0  0  0  0  0  0  0
  4.627944  0.697929  0.000000 C    0  0  0  0  0  0  0
  3.802944  0.697929  0.000000 C    0  0  0  0  0  0  0
  0.090445  1.412399  0.000000 C    0  0  0  0  0  0  0
  1.136502  2.458458  0.000000 C    0  0  0  0  0  0  0
  3.994387  2.458458  0.000000 C    0  0  0  0  0  0  0
  5.040445  1.412399  0.000000 C    0  0  0  0  0  0  0
  5.040445 -1.445484  0.000000 C    0  0  0  0  0  0  0
  3.994387 -2.491542  0.000000 C    0  0  0  0  0  0  0
  1.136502 -2.491542  0.000000 C    0  0  0  0  0  0  0
 -0.734555 -1.445484  0.000000 F    0  0  0  0  0  0  0
 -0.322056 -2.159955  0.000000 F    0  0  0  0  0  0  0
  1.153590 -3.316365  0.000000 F    0  0  0  0  0  0  0
  1.859364 -2.889155  0.000000 F    0  0  0  0  0  0  0
  0.422031 -2.904043  0.000000 F    0  0  0  0  0  0  0
  4.708857 -2.079043  0.000000 F    0  0  0  0  0  0  0
  3.994387 -3.316542  0.000000 F    0  0  0  0  0  0  0
  4.708857 -2.904043  0.000000 F    0  0  0  0  0  0  0
  4.325973 -1.857984  0.000000 C    0  0  0  0  0  0  0
  5.837333 -1.659010  0.000000 F    0  0  0  0  0  0  0
  5.542672 -0.790968  0.000000 F    0  0  0  0  0  0  0
  4.627944  2.126870  0.000000 F    0  0  0  0  0  0  0
  5.865445  1.412399  0.000000 F    0  0  0  0  0  0  0
  5.452944  2.126870  0.000000 F    0  0  0  0  0  0  0
  4.207912  1.661569  0.000000 F    0  0  0  0  0  0  0
  4.310100  3.220658  0.000000 F    0  0  0  0  0  0  0
  3.374118  3.002418  0.000000 F    0  0  0  0  0  0  0
  0.422031  2.045957  0.000000 F    0  0  0  0  0  0  0
  1.136502  3.283458  0.000000 F    0  0  0  0  0  0  0
  1.850973  2.870957  0.000000 F    0  0  0  0  0  0  0
  0.804916  1.824900  0.000000 F    0  0  0  0  0  0  0
 -0.706445  1.625925  0.000000 F    0  0  0  0  0  0  0
 -0.564072  0.910172  0.000000 F    0  0  0  0  0  0  0
  0.090445 -1.445484  0.000000 C    0  0  0  0  0  0  0
  0.502944 -2.159955  0.000000 F    0  0  0  0  0  0  0
  1  2  1  0  0  0  0
  2  3  1  0  0  0  0
  3  4  1  0  0  0  0
  4  5  1  0  0  0  0
  5  6  1  0  0  0  0
  6  7  1  0  0  0  0
  7  2  1  0  0  0  0
  1  3  1  0  0  0  0
  1  7  1  0  0  0  0
  1  4  1  0  0  0  0
  1  5  1  0  0  0  0
  1  6  1  0  0  0  0
  7  8  1  0  0  0  0
  6  9  1  0  0  0  0
  5 10  1  0  0  0  0
  4 11  1  0  0  0  0
  3 12  1  0  0  0  0
  1 13  1  0  0  0  0
  1 14  1  0  0  0  0
 13 15  1  0  0  0  0
 13 16  1  0  0  0  0
 13 17  1  0  0  0  0
 14 18  1  0  0  0  0
 14 19  1  0  0  0  0
 14 20  1  0  0  0  0
  1 21  9  0  0  0  0
 22 23  1  0  0  0  0
 22 24  1  0  0  0  0
 22 25  1  0  0  0  0
 22 26  1  0  0  0  0
 26 27  2  0  0  0  0
 27 28  1  0  0  0  0
 28 29  2  0  0  0  0
 29 30  1  0  0  0  0
 30 31  2  0  0  0  0
 31 26  1  0  0  0  0
 24 32  2  0  0  0  0
 32 33  1  0  0  0  0
 33 34  2  0  0  0  0
 34 35  1  0  0  0  0
 35 36  2  0  0  0  0
 36 24  1  0  0  0  0
 23 37  2  0  0  0  0
 37 38  1  0  0  0  0
 38 39  2  0  0  0  0
 39 40  1  0  0  0  0
 40 41  2  0  0  0  0
 41 23  1  0  0  0  0
 25 42  2  0  0  0  0
 42 43  1  0  0  0  0
 43 44  2  0  0  0  0
 44 45  1  0  0  0  0
 45 46  2  0  0  0  0
 46 25  1  0  0  0  0
 35 77  1  0  0  0  0
 33 47  1  0  0  0  0
 30 48  1  0  0  0  0
 28 49  1  0  0  0  0
 45 50  1  0  0  0  0
 43 51  1  0  0  0  0
 40 52  1  0  0  0  0
 38 53  1  0  0  0  0
 77 54  1  0  0  0  0
 77 55  1  0  0  0  0
 53 56  1  0  0  0  0
 53 57  1  0  0  0  0
 53 58  1  0  0  0  0
 52 59  1  0  0  0  0
 52 60  1  0  0  0  0
 52 61  1  0  0  0  0
 51 62  1  0  0  0  0
 51 63  1  0  0  0  0
 51 64  1  0  0  0  0
 50 65  1  0  0  0  0
 50 66  1  0  0  0  0
 50 67  1  0  0  0  0
 49 68  1  0  0  0  0
 49 69  1  0  0  0  0
 49 70  1  0  0  0  0
 48 71  1  0  0  0  0
 48 72  1  0  0  0  0
 48 73  1  0  0  0  0
 47 74  1  0  0  0  0
 47 75  1  0  0  0  0
 47 76  1  0  0  0  0
 77 78  1  0  0  0  0
M  END
> <NMREDATA_VERSION>
1.1

> <NMREDATA_LEVEL>
0

> <NMREDATA_SOLVENT>
C6D5Br

> <NMREDATA_TEMPERATURE>
298

> <NMREDATA_FORMULA>
C50H51BF23NaP2Rh

> <NMREDATA_SMILES>
CP([Rh]12345([Na])(C6C3(C2(C5(C1(C46C)C)C)C)C)P(C)(C)C)(C)C.CC(c1cc(cc(c1)C(F)(F)F)[B](c1cc(cc(c1)C(F)(F)F)C(F)(F)F)(c1cc(cc(c1)C(F)(F)F)C(F)(F)F)c1cc(cc(c1)C(F)(F)F)C(F)(F)F)(F)F

> <NMREDATA_ASSIGNMENT>
Rh1, -893.00, 1

> <NMREDATA_1D_103Rh>
-893.00, L=Rh1

$$$$
RhMan0925_0078.mol
  ChemDraw12152511002D

M  V30 COUNTS 43 50 0 0 0
 -2.756322  0.132339  0.000000 Rh   0  0  0  0  0  0  0
 -2.756322  0.957339  0.000000 C    0  0  0  0  0  0  0
 -2.041851  1.369839  0.000000 C    0  0  0  0  0  0  0
 -2.041851  2.194839  0.000000 C    0  0  0  0  0  0  0
 -2.756322  2.607339  0.000000 C    0  0  0  0  0  0  0
 -3.470793  2.194839  0.000000 C    0  0  0  0  0  0  0
 -3.470793  1.369839  0.000000 C    0  0  0  0  0  0  0
 -4.243221  1.080046  0.000000 C    0  0  0  0  0  0  0
 -4.185264  2.607339  0.000000 C    0  0  0  0  0  0  0
 -2.756322  3.432339  0.000000 C    0  0  0  0  0  0  0
 -1.327380  2.607339  0.000000 C    0  0  0  0  0  0  0
 -1.224601  1.257026  0.000000 C    0  0  0  0  0  0  0
 -3.682694 -0.496270  0.000000 P    0  0  0  0  0  0  0
 -1.796866 -0.794033  0.000000 P    0  0  0  0  0  0  0
 -4.185264  0.132339  0.000000 C    0  0  0  0  0  0  0
 -3.470793 -1.105161  0.000000 C    0  0  0  0  0  0  0
 -4.404846 -0.895171  0.000000 C    0  0  0  0  0  0  0
 -2.386485 -1.247913  0.000000 C    0  0  0  0  0  0  0
 -1.376070 -0.237498  0.000000 C    0  0  0  0  0  0  0
 -1.210985 -1.374867  0.000000 C    0  0  0  0  0  0  0
  0.882996 -0.132339  0.000000 Zn   0  0  0  0  0  0  0
  1.217291 -0.957339  0.000000 C    0  0  0  0  0  0  0
  2.014180  0.081188  0.000000 C    0  0  0  0  0  0  0
  2.597542 -0.502176  0.000000 C    0  0  0  0  0  0  0
  3.394431 -0.288650  0.000000 C    0  0  0  0  0  0  0
  3.607957  0.508239  0.000000 C    0  0  0  0  0  0  0
  3.024594  1.091602  0.000000 C    0  0  0  0  0  0  0
  2.227705  0.878076  0.000000 C    0  0  0  0  0  0  0
  0.502820 -1.369839  0.000000 C    0  0  0  0  0  0  0
  0.502820 -2.194839  0.000000 C    0  0  0  0  0  0  0
  1.217291 -2.607339  0.000000 C    0  0  0  0  0  0  0
  1.931761 -2.194839  0.000000 C    0  0  0  0  0  0  0
  1.931761 -1.369839  0.000000 C    0  0  0  0  0  0  0
 -0.211651 -0.957339  0.000000 F    0  0  0  0  0  0  0
 -0.211651 -2.607339  0.000000 F    0  0  0  0  0  0  0
  1.217291 -3.432339  0.000000 F    0  0  0  0  0  0  0
  2.646232 -2.607339  0.000000 F    0  0  0  0  0  0  0
  2.646232 -0.957339  0.000000 F    0  0  0  0  0  0  0
  1.800654 -0.715702  0.000000 F    0  0  0  0  0  0  0
  3.977794 -0.872013  0.000000 F    0  0  0  0  0  0  0
  4.404846  0.721765  0.000000 F    0  0  0  0  0  0  0
  3.238120  1.888491  0.000000 F    0  0  0  0  0  0  0
  1.644343  1.461439  0.000000 F    0  0  0  0  0  0  0
  1  2  1  0  0  0  0
  2  3  1  0  0  0  0
  3  4  1  0  0  0  0
  4  5  1  0  0  0  0
  5  6  1  0  0  0  0
  6  7  1  0  0  0  0
  7  2  1  0  0  0  0
  1  3  1  0  0  0  0
  1  7  1  0  0  0  0
  1  4  1  0  0  0  0
  1  5  1  0  0  0  0
  1  6  1  0  0  0  0
  7  8  1  0  0  0  0
  6  9  1  0  0  0  0
  5 10  1  0  0  0  0
  4 11  1  0  0  0  0
  3 12  1  0  0  0  0
  1 13  1  0  0  0  0
  1 14  1  0  0  0  0
 13 15  1  0  0  0  0
 13 16  1  0  0  0  0
 13 17  1  0  0  0  0
 14 18  1  0  0  0  0
 14 19  1  0  0  0  0
 14 20  1  0  0  0  0
 21 22  1  0  0  0  0
 21 23  1  0  0  0  0
 23 24  2  0  0  0  0
 24 25  1  0  0  0  0
 25 26  2  0  0  0  0
 26 27  1  0  0  0  0
 27 28  2  0  0  0  0
 28 23  1  0  0  0  0
 22 29  2  0  0  0  0
 29 30  1  0  0  0  0
 30 31  2  0  0  0  0
 31 32  1  0  0  0  0
 32 33  2  0  0  0  0
 33 22  1  0  0  0  0
  1 21  9  0  0  0  0
 29 34  1  0  0  0  0
 30 35  1  0  0  0  0
 31 36  1  0  0  0  0
 32 37  1  0  0  0  0
 33 38  1  0  0  0  0
 24 39  1  0  0  0  0
 25 40  1  0  0  0  0
 26 41  1  0  0  0  0
 27 42  1  0  0  0  0
 28 43  1  0  0  0  0
M  END
> <NMREDATA_VERSION>
1.1

> <NMREDATA_LEVEL>
0

> <NMREDATA_SOLVENT>
C6D6

> <NMREDATA_TEMPERATURE>
298

> <NMREDATA_FORMULA>
C29H36F10P2RhZn

> <NMREDATA_SMILES>
Fc1c(F)c(F)c(c(c1[Zn]([Rh]12345(C6C3(C2(C5(C1(C46C)C)C)C)C)(P(C)(C)C)P(C)(C)C)c1c(F)c(F)c(c(c1F)F)F)F)F

> <NMREDATA_ASSIGNMENT>
Rh1, -986.00, 1

> <NMREDATA_1D_103Rh>
-986.00, L=Rh1

$$$$
RhMan0925_0079.mol
  ChemDraw12152511052D

M  V30 COUNTS 23 28 0 0 0
 -1.560989 -0.896397  0.000000 Rh   0  0  0  0  0  0  0
 -1.560989 -0.071397  0.000000 C    0  0  0  0  0  0  0
 -0.846518  0.341104  0.000000 C    0  0  0  0  0  0  0
 -0.846518  1.166104  0.000000 C    0  0  0  0  0  0  0
 -1.560989  1.578603  0.000000 C    0  0  0  0  0  0  0
 -2.275460  1.166104  0.000000 C    0  0  0  0  0  0  0
 -2.275460  0.341104  0.000000 C    0  0  0  0  0  0  0
 -3.047888  0.051310  0.000000 C    0  0  0  0  0  0  0
 -2.989931  1.578603  0.000000 C    0  0  0  0  0  0  0
 -1.560989  2.403603  0.000000 C    0  0  0  0  0  0  0
 -0.132047  1.578603  0.000000 C    0  0  0  0  0  0  0
 -0.029268  0.228290  0.000000 C    0  0  0  0  0  0  0
 -2.487361 -1.525006  0.000000 P    0  0  0  0  0  0  0
 -0.601533 -1.822769  0.000000 P    0  0  0  0  0  0  0
 -2.989931 -0.896397  0.000000 C    0  0  0  0  0  0  0
 -2.275460 -2.133896  0.000000 C    0  0  0  0  0  0  0
 -3.209513 -1.923907  0.000000 C    0  0  0  0  0  0  0
 -1.191152 -2.276649  0.000000 C    0  0  0  0  0  0  0
 -0.180737 -1.266234  0.000000 C    0  0  0  0  0  0  0
 -0.015652 -2.403603  0.000000 C    0  0  0  0  0  0  0
  2.078329 -1.161075  0.000000 Zn   0  0  0  0  0  0  0
  2.412624 -1.986075  0.000000 C    0  0  0  0  0  0  0
  3.209513 -0.947548  0.000000 C    0  0  0  0  0  0  0
  1  2  1  0  0  0  0
  2  3  1  0  0  0  0
  3  4  1  0  0  0  0
  4  5  1  0  0  0  0
  5  6  1  0  0  0  0
  6  7  1  0  0  0  0
  7  2  1  0  0  0  0
  1  3  1  0  0  0  0
  1  7  1  0  0  0  0
  1  4  1  0  0  0  0
  1  5  1  0  0  0  0
  1  6  1  0  0  0  0
  7  8  1  0  0  0  0
  6  9  1  0  0  0  0
  5 10  1  0  0  0  0
  4 11  1  0  0  0  0
  3 12  1  0  0  0  0
  1 13  1  0  0  0  0
  1 14  1  0  0  0  0
 13 15  1  0  0  0  0
 13 16  1  0  0  0  0
 13 17  1  0  0  0  0
 14 18  1  0  0  0  0
 14 19  1  0  0  0  0
 14 20  1  0  0  0  0
 21 22  1  0  0  0  0
 21 23  1  0  0  0  0
  1 21  9  0  0  0  0
M  END
> <NMREDATA_VERSION>
1.1

> <NMREDATA_LEVEL>
0

> <NMREDATA_SOLVENT>
C6D6

> <NMREDATA_TEMPERATURE>
298

> <NMREDATA_FORMULA>
C19H42P2RhZn

> <NMREDATA_SMILES>
C[Zn]([Rh]12345(C6C3(C2(C5(C1(C46C)C)C)C)C)(P(C)(C)C)P(C)(C)C)C

> <NMREDATA_ASSIGNMENT>
Rh1, -843.00, 1

> <NMREDATA_1D_103Rh>
-843.00, L=Rh1

$$$$
RhMan0925_0080.mol
  ChemDraw12152511062D

M  V30 COUNTS 23 28 0 0 0
 -1.560989 -0.896397  0.000000 Rh   0  0  0  0  0  0  0
 -1.560989 -0.071397  0.000000 C    0  0  0  0  0  0  0
 -0.846518  0.341104  0.000000 C    0  0  0  0  0  0  0
 -0.846518  1.166104  0.000000 C    0  0  0  0  0  0  0
 -1.560989  1.578603  0.000000 C    0  0  0  0  0  0  0
 -2.275460  1.166104  0.000000 C    0  0  0  0  0  0  0
 -2.275460  0.341104  0.000000 C    0  0  0  0  0  0  0
 -3.047888  0.051310  0.000000 C    0  0  0  0  0  0  0
 -2.989931  1.578603  0.000000 C    0  0  0  0  0  0  0
 -1.560989  2.403603  0.000000 C    0  0  0  0  0  0  0
 -0.132047  1.578603  0.000000 C    0  0  0  0  0  0  0
 -0.029268  0.228290  0.000000 C    0  0  0  0  0  0  0
 -2.487361 -1.525006  0.000000 P    0  0  0  0  0  0  0
 -0.601533 -1.822769  0.000000 P    0  0  0  0  0  0  0
 -2.989931 -0.896397  0.000000 C    0  0  0  0  0  0  0
 -2.275460 -2.133896  0.000000 C    0  0  0  0  0  0  0
 -3.209513 -1.923907  0.000000 C    0  0  0  0  0  0  0
 -1.191152 -2.276649  0.000000 C    0  0  0  0  0  0  0
 -0.180737 -1.266234  0.000000 C    0  0  0  0  0  0  0
 -0.015652 -2.403603  0.000000 C    0  0  0  0  0  0  0
  2.078329 -1.161075  0.000000 Ge   0  0  0  0  0  0  0
  2.412624 -1.986075  0.000000 Cl   0  0  0  0  0  0  0
  3.209513 -0.947548  0.000000 Cl   0  0  0  0  0  0  0
  1  2  1  0  0  0  0
  2  3  1  0  0  0  0
  3  4  1  0  0  0  0
  4  5  1  0  0  0  0
  5  6  1  0  0  0  0
  6  7  1  0  0  0  0
  7  2  1  0  0  0  0
  1  3  1  0  0  0  0
  1  7  1  0  0  0  0
  1  4  1  0  0  0  0
  1  5  1  0  0  0  0
  1  6  1  0  0  0  0
  7  8  1  0  0  0  0
  6  9  1  0  0  0  0
  5 10  1  0  0  0  0
  4 11  1  0  0  0  0
  3 12  1  0  0  0  0
  1 13  1  0  0  0  0
  1 14  1  0  0  0  0
 13 15  1  0  0  0  0
 13 16  1  0  0  0  0
 13 17  1  0  0  0  0
 14 18  1  0  0  0  0
 14 19  1  0  0  0  0
 14 20  1  0  0  0  0
 21 22  1  0  0  0  0
 21 23  1  0  0  0  0
  1 21  9  0  0  0  0
M  END
> <NMREDATA_VERSION>
1.1

> <NMREDATA_LEVEL>
0

> <NMREDATA_SOLVENT>
C6D5Br

> <NMREDATA_TEMPERATURE>
298

> <NMREDATA_FORMULA>
C17H36Cl2GeP2Rh

> <NMREDATA_SMILES>
Cl[Ge]([Rh]12345(C6C3(C2(C5(C1(C46C)C)C)C)C)(P(C)(C)C)P(C)(C)C)Cl

> <NMREDATA_ASSIGNMENT>
Rh1, -387.00, 1

> <NMREDATA_1D_103Rh>
-387.00, L=Rh1

$$$$
RhMan0925_0081.mol
  ChemDraw12152511062D

M  V30 COUNTS 23 28 0 0 0
 -1.560989 -0.896397  0.000000 Rh   0  0  0  0  0  0  0
 -1.560989 -0.071397  0.000000 C    0  0  0  0  0  0  0
 -0.846518  0.341104  0.000000 C    0  0  0  0  0  0  0
 -0.846518  1.166104  0.000000 C    0  0  0  0  0  0  0
 -1.560989  1.578603  0.000000 C    0  0  0  0  0  0  0
 -2.275460  1.166104  0.000000 C    0  0  0  0  0  0  0
 -2.275460  0.341104  0.000000 C    0  0  0  0  0  0  0
 -3.047888  0.051310  0.000000 C    0  0  0  0  0  0  0
 -2.989931  1.578603  0.000000 C    0  0  0  0  0  0  0
 -1.560989  2.403603  0.000000 C    0  0  0  0  0  0  0
 -0.132047  1.578603  0.000000 C    0  0  0  0  0  0  0
 -0.029268  0.228290  0.000000 C    0  0  0  0  0  0  0
 -2.487361 -1.525006  0.000000 P    0  0  0  0  0  0  0
 -0.601533 -1.822769  0.000000 P    0  0  0  0  0  0  0
 -2.989931 -0.896397  0.000000 C    0  0  0  0  0  0  0
 -2.275460 -2.133896  0.000000 C    0  0  0  0  0  0  0
 -3.209513 -1.923907  0.000000 C    0  0  0  0  0  0  0
 -1.191152 -2.276649  0.000000 C    0  0  0  0  0  0  0
 -0.180737 -1.266234  0.000000 C    0  0  0  0  0  0  0
 -0.015652 -2.403603  0.000000 C    0  0  0  0  0  0  0
  2.078329 -1.161075  0.000000 Sn   0  0  0  0  0  0  0
  2.412624 -1.986075  0.000000 Cl   0  0  0  0  0  0  0
  3.209513 -0.947548  0.000000 Cl   0  0  0  0  0  0  0
  1  2  1  0  0  0  0
  2  3  1  0  0  0  0
  3  4  1  0  0  0  0
  4  5  1  0  0  0  0
  5  6  1  0  0  0  0
  6  7  1  0  0  0  0
  7  2  1  0  0  0  0
  1  3  1  0  0  0  0
  1  7  1  0  0  0  0
  1  4  1  0  0  0  0
  1  5  1  0  0  0  0
  1  6  1  0  0  0  0
  7  8  1  0  0  0  0
  6  9  1  0  0  0  0
  5 10  1  0  0  0  0
  4 11  1  0  0  0  0
  3 12  1  0  0  0  0
  1 13  1  0  0  0  0
  1 14  1  0  0  0  0
 13 15  1  0  0  0  0
 13 16  1  0  0  0  0
 13 17  1  0  0  0  0
 14 18  1  0  0  0  0
 14 19  1  0  0  0  0
 14 20  1  0  0  0  0
 21 22  1  0  0  0  0
 21 23  1  0  0  0  0
  1 21  9  0  0  0  0
M  END
> <NMREDATA_VERSION>
1.1

> <NMREDATA_LEVEL>
0

> <NMREDATA_SOLVENT>
C6D5Br

> <NMREDATA_TEMPERATURE>
298

> <NMREDATA_FORMULA>
C17H36Cl2P2RhSn

> <NMREDATA_SMILES>
Cl[Sn]([Rh]12345(C6C3(C2(C5(C1(C46C)C)C)C)C)(P(C)(C)C)P(C)(C)C)Cl

> <NMREDATA_ASSIGNMENT>
Rh1, -467.00, 1

> <NMREDATA_1D_103Rh>
-467.00, L=Rh1

$$$$
RhMan0925_0082.mol
  ChemDraw12152511082D

M  V30 COUNTS 24 29 0 0 0
 -1.560989 -0.896397  0.000000 Rh   0  0  0  0  0  0  0
 -1.560989 -0.071397  0.000000 C    0  0  0  0  0  0  0
 -0.846518  0.341104  0.000000 C    0  0  0  0  0  0  0
 -0.846518  1.166104  0.000000 C    0  0  0  0  0  0  0
 -1.560989  1.578603  0.000000 C    0  0  0  0  0  0  0
 -2.275460  1.166104  0.000000 C    0  0  0  0  0  0  0
 -2.275460  0.341104  0.000000 C    0  0  0  0  0  0  0
 -3.047888  0.051310  0.000000 C    0  0  0  0  0  0  0
 -2.989931  1.578603  0.000000 C    0  0  0  0  0  0  0
 -1.560989  2.403603  0.000000 C    0  0  0  0  0  0  0
 -0.132047  1.578603  0.000000 C    0  0  0  0  0  0  0
 -0.029268  0.228290  0.000000 C    0  0  0  0  0  0  0
 -2.487361 -1.525006  0.000000 P    0  0  0  0  0  0  0
 -0.601533 -1.822769  0.000000 P    0  0  0  0  0  0  0
 -2.989931 -0.896397  0.000000 C    0  0  0  0  0  0  0
 -2.275460 -2.133896  0.000000 C    0  0  0  0  0  0  0
 -3.209513 -1.923907  0.000000 C    0  0  0  0  0  0  0
 -1.191152 -2.276649  0.000000 C    0  0  0  0  0  0  0
 -0.180737 -1.266234  0.000000 C    0  0  0  0  0  0  0
 -0.015652 -2.403603  0.000000 C    0  0  0  0  0  0  0
  1.615143 -1.127990  0.000000 Al   0  0  0  0  0  0  0
  2.412624 -1.986075  0.000000 C    0  0  0  0  0  0  0
  3.209513 -0.947548  0.000000 C    0  0  0  0  0  0  0
  1.615143 -0.302990  0.000000 C    0  0  0  0  0  0  0
  1  2  1  0  0  0  0
  2  3  1  0  0  0  0
  3  4  1  0  0  0  0
  4  5  1  0  0  0  0
  5  6  1  0  0  0  0
  6  7  1  0  0  0  0
  7  2  1  0  0  0  0
  1  3  1  0  0  0  0
  1  7  1  0  0  0  0
  1  4  1  0  0  0  0
  1  5  1  0  0  0  0
  1  6  1  0  0  0  0
  7  8  1  0  0  0  0
  6  9  1  0  0  0  0
  5 10  1  0  0  0  0
  4 11  1  0  0  0  0
  3 12  1  0  0  0  0
  1 13  1  0  0  0  0
  1 14  1  0  0  0  0
 13 15  1  0  0  0  0
 13 16  1  0  0  0  0
 13 17  1  0  0  0  0
 14 18  1  0  0  0  0
 14 19  1  0  0  0  0
 14 20  1  0  0  0  0
 21 22  1  0  0  0  0
 21 23  1  0  0  0  0
  1 21  9  0  0  0  0
 21 24  1  0  0  0  0
M  END
> <NMREDATA_VERSION>
1.1

> <NMREDATA_LEVEL>
0

> <NMREDATA_SOLVENT>
C6D6

> <NMREDATA_TEMPERATURE>
298

> <NMREDATA_FORMULA>
C20H45AlP2Rh

> <NMREDATA_SMILES>
CP([Rh]12345([Al](C)(C)C)(C6C3(C2(C5(C1(C46C)C)C)C)C)P(C)(C)C)(C)C

> <NMREDATA_ASSIGNMENT>
Rh1, -903.00, 1

> <NMREDATA_1D_103Rh>
-903.00, L=Rh1

$$$$
RhMan0925_0083.mol
  ChemDraw12152511142D

M  V30 COUNTS 22 27 0 0 0
 -1.162545 -0.896397  0.000000 Rh   0  0  0  0  0  0  0
 -1.162545 -0.071397  0.000000 C    0  0  0  0  0  0  0
 -0.448074  0.341104  0.000000 C    0  0  0  0  0  0  0
 -0.448074  1.166104  0.000000 C    0  0  0  0  0  0  0
 -1.162545  1.578603  0.000000 C    0  0  0  0  0  0  0
 -1.877016  1.166104  0.000000 C    0  0  0  0  0  0  0
 -1.877016  0.341104  0.000000 C    0  0  0  0  0  0  0
 -2.649444  0.051310  0.000000 C    0  0  0  0  0  0  0
 -2.591487  1.578603  0.000000 C    0  0  0  0  0  0  0
 -1.162545  2.403603  0.000000 C    0  0  0  0  0  0  0
  0.266397  1.578603  0.000000 C    0  0  0  0  0  0  0
  0.369176  0.228290  0.000000 C    0  0  0  0  0  0  0
 -2.088917 -1.525006  0.000000 P    0  0  0  0  0  0  0
 -0.203089 -1.822769  0.000000 P    0  0  0  0  0  0  0
 -2.591487 -0.896397  0.000000 C    0  0  0  0  0  0  0
 -1.877016 -2.133896  0.000000 C    0  0  0  0  0  0  0
 -2.811068 -1.923907  0.000000 C    0  0  0  0  0  0  0
 -0.792708 -2.276649  0.000000 C    0  0  0  0  0  0  0
  0.217707 -1.266234  0.000000 C    0  0  0  0  0  0  0
  0.382792 -2.403603  0.000000 C    0  0  0  0  0  0  0
  2.013588 -1.127990  0.000000 Cu   0  0  0  0  0  0  0
  2.811068 -1.986075  0.000000 Cl   0  0  0  0  0  0  0
  1  2  1  0  0  0  0
  2  3  1  0  0  0  0
  3  4  1  0  0  0  0
  4  5  1  0  0  0  0
  5  6  1  0  0  0  0
  6  7  1  0  0  0  0
  7  2  1  0  0  0  0
  1  3  1  0  0  0  0
  1  7  1  0  0  0  0
  1  4  1  0  0  0  0
  1  5  1  0  0  0  0
  1  6  1  0  0  0  0
  7  8  1  0  0  0  0
  6  9  1  0  0  0  0
  5 10  1  0  0  0  0
  4 11  1  0  0  0  0
  3 12  1  0  0  0  0
  1 13  1  0  0  0  0
  1 14  1  0  0  0  0
 13 15  1  0  0  0  0
 13 16  1  0  0  0  0
 13 17  1  0  0  0  0
 14 18  1  0  0  0  0
 14 19  1  0  0  0  0
 14 20  1  0  0  0  0
 21 22  1  0  0  0  0
  1 21  9  0  0  0  0
M  END
> <NMREDATA_VERSION>
1.1

> <NMREDATA_LEVEL>
0

> <NMREDATA_SOLVENT>
C6D5Br

> <NMREDATA_TEMPERATURE>
298

> <NMREDATA_FORMULA>
C17H36ClCuP2Rh

> <NMREDATA_SMILES>
Cl[Cu][Rh]12345(C6C3(C2(C5(C1(C46C)C)C)C)C)(P(C)(C)C)P(C)(C)C

> <NMREDATA_ASSIGNMENT>
Rh1, -171.00, 1

> <NMREDATA_1D_103Rh>
-171.00, L=Rh1

$$$$

  ACD/LABS12152511352D

 51 76  0  0  0  0  0  0  0  0  1 V2000
   20.4109  -16.4011    0.0000 B    0  0  0  0  0  0  0  0  0  0  0  0
   20.4109  -15.1211    0.0000 B    0  0  0  0  0  0  0  0  0  0  0  0
   18.3841  -14.2677    0.0000 B    0  0  0  0  0  0  0  0  0  0  0  0
   19.3442  -12.8809    0.0000 B    0  0  0  0  0  0  0  0  0  0  0  0
   21.8533  -12.6901    0.0000 B    0  0  0  0  0  0  0  0  0  0  0  0
   22.4911  -14.3210    0.0000 B    0  0  0  0  0  0  0  0  0  0  0  0
   21.8340  -10.6744    0.0000 B    0  0  0  0  0  0  0  0  0  0  0  0
   19.3144  -10.6938    0.0000 B    0  0  0  0  0  0  0  0  0  0  0  0
   18.2678  -12.2637    0.0000 C    0  0  0  0  0  0  0  0  0  0  0  0
   23.0162  -12.2831    0.0000 B    0  0  0  0  0  0  0  0  0  0  0  0
   20.3998  -13.3103    0.0000 C    0  0  0  0  0  0  0  0  0  0  0  0
   20.3804   -9.7635    0.0000 Rh   0  0  0  0  0  0  0  0  0  0  0  0
   21.5322   -9.0985    0.0000 H    0  0  0  0  0  0  0  0  0  0  0  0
   20.3696   -8.4788    0.0000 P    0  0  0  0  0  5  0  0  0  0  0  0
   19.2286   -9.0985    0.0000 P    0  0  0  0  0  5  0  0  0  0  0  0
   24.8762   -9.1858    0.0000 C    0  0  0  0  0  0  0  0  0  0  0  0
   20.6936   -6.0415    0.0000 C    0  0  0  0  0  0  0  0  0  0  0  0
   24.2699   -7.0585    0.0000 C    0  0  0  0  0  0  0  0  0  0  0  0
   16.2384  -10.6056    0.0000 C    0  0  0  0  0  0  0  0  0  0  0  0
   16.9028   -6.4506    0.0000 C    0  0  0  0  0  0  0  0  0  0  0  0
   14.8429   -8.2116    0.0000 C    0  0  0  0  0  0  0  0  0  0  0  0
   15.1261   -9.8764    0.0000 C    0  0  0  0  0  0  0  0  0  0  0  0
   13.9384  -10.4750    0.0000 C    0  0  0  0  0  0  0  0  0  0  0  0
   13.8630  -11.8028    0.0000 C    0  0  0  0  0  0  0  0  0  0  0  0
   14.9752  -12.5321    0.0000 C    0  0  0  0  0  0  0  0  0  0  0  0
   16.1629  -11.9335    0.0000 C    0  0  0  0  0  0  0  0  0  0  0  0
   14.4194   -6.9509    0.0000 C    0  0  0  0  0  0  0  0  0  0  0  0
   13.1158   -6.6872    0.0000 C    0  0  0  0  0  0  0  0  0  0  0  0
   12.2357   -7.6844    0.0000 C    0  0  0  0  0  0  0  0  0  0  0  0
   12.6592   -8.9451    0.0000 C    0  0  0  0  0  0  0  0  0  0  0  0
   13.9628   -9.2088    0.0000 C    0  0  0  0  0  0  0  0  0  0  0  0
   17.3294   -5.1909    0.0000 C    0  0  0  0  0  0  0  0  0  0  0  0
   16.4517   -4.1916    0.0000 C    0  0  0  0  0  0  0  0  0  0  0  0
   15.1475   -4.4521    0.0000 C    0  0  0  0  0  0  0  0  0  0  0  0
   14.7209   -5.7118    0.0000 C    0  0  0  0  0  0  0  0  0  0  0  0
   15.5986   -6.7111    0.0000 C    0  0  0  0  0  0  0  0  0  0  0  0
   21.9230   -5.5340    0.0000 C    0  0  0  0  0  0  0  0  0  0  0  0
   22.0982   -4.2156    0.0000 C    0  0  0  0  0  0  0  0  0  0  0  0
   21.0440   -3.4047    0.0000 C    0  0  0  0  0  0  0  0  0  0  0  0
   19.8147   -3.9121    0.0000 C    0  0  0  0  0  0  0  0  0  0  0  0
   19.6394   -5.2305    0.0000 C    0  0  0  0  0  0  0  0  0  0  0  0
   25.2889   -7.9132    0.0000 C    0  0  0  0  0  0  0  0  0  0  0  0
   26.5386   -7.4581    0.0000 C    0  0  0  0  0  0  0  0  0  0  0  0
   26.7693   -6.1483    0.0000 C    0  0  0  0  0  0  0  0  0  0  0  0
   25.7503   -5.2936    0.0000 C    0  0  0  0  0  0  0  0  0  0  0  0
   24.5006   -5.7487    0.0000 C    0  0  0  0  0  0  0  0  0  0  0  0
   25.3547  -10.4267    0.0000 C    0  0  0  0  0  0  0  0  0  0  0  0
   26.6686  -10.6328    0.0000 C    0  0  0  0  0  0  0  0  0  0  0  0
   27.5041   -9.5980    0.0000 C    0  0  0  0  0  0  0  0  0  0  0  0
   27.0256   -8.3571    0.0000 C    0  0  0  0  0  0  0  0  0  0  0  0
   25.7117   -8.1509    0.0000 C    0  0  0  0  0  0  0  0  0  0  0  0
  1  2  1  0  0  0  0
  1  6  1  0  0  0  0
  1  3  1  0  0  0  0
  1  4  1  0  0  0  0
  1  5  1  0  0  0  0
  2  3  1  0  0  0  0
  3  4  1  0  0  0  0
  4  5  1  0  0  0  0
  6  2  1  0  0  0  0
 10 11  1  0  0  0  0
 11  9  1  0  0  0  0
  9  8  1  0  0  0  0
  8  7  1  0  0  0  0
  7 10  1  0  0  0  0
 11  2  1  0  0  0  0
 11  3  1  0  0  0  0
  9  3  1  0  0  0  0
  9  4  1  0  0  0  0
  8  4  1  0  0  0  0
  8  5  1  0  0  0  0
  7  5  1  0  0  0  0
  7  4  1  0  0  0  0
 10  6  1  0  0  0  0
 10  5  1  0  0  0  0
  5  2  1  0  0  0  0
 12  8  1  0  0  0  0
 12  7  1  0  0  0  0
 12 10  1  0  0  0  0
 12 11  1  0  0  0  0
 12  9  1  0  0  0  0
 12 13  1  0  0  0  0
 12 14  1  0  0  0  0
 12 15  1  0  0  0  0
 14 16  1  0  0  0  0
 14 17  1  0  0  0  0
 14 18  1  0  0  0  0
 15 19  1  0  0  0  0
 15 20  1  0  0  0  0
 15 21  1  0  0  0  0
 19 22  2  0  0  0  0
 22 23  1  0  0  0  0
 23 24  2  0  0  0  0
 24 25  1  0  0  0  0
 25 26  2  0  0  0  0
 26 19  1  0  0  0  0
 21 27  2  0  0  0  0
 27 28  1  0  0  0  0
 28 29  2  0  0  0  0
 29 30  1  0  0  0  0
 30 31  2  0  0  0  0
 31 21  1  0  0  0  0
 20 32  2  0  0  0  0
 32 33  1  0  0  0  0
 33 34  2  0  0  0  0
 34 35  1  0  0  0  0
 35 36  2  0  0  0  0
 36 20  1  0  0  0  0
 17 37  2  0  0  0  0
 37 38  1  0  0  0  0
 38 39  2  0  0  0  0
 39 40  1  0  0  0  0
 40 41  2  0  0  0  0
 41 17  1  0  0  0  0
 18 42  2  0  0  0  0
 42 43  1  0  0  0  0
 43 44  2  0  0  0  0
 44 45  1  0  0  0  0
 45 46  2  0  0  0  0
 46 18  1  0  0  0  0
 16 47  2  0  0  0  0
 47 48  1  0  0  0  0
 48 49  2  0  0  0  0
 49 50  1  0  0  0  0
 50 51  2  0  0  0  0
 51 16  1  0  0  0  0
  5  6  1  0  0  0  0
M  END
> <NMREDATA_VERSION>
1.1

> <NMREDATA_LEVEL>
0

> <NMREDATA_SOLVENT>
CDCl3

> <NMREDATA_TEMPERATURE>
298

> <NMREDATA_FORMULA>
C38H33B9P2Rh

> <NMREDATA_SMILES>
c1ccc(cc1)P([RhH]1234(P(c5ccccc5)(c5ccccc5)c5ccccc5)[C]567[C]891[B]1%103[B]3%114[B]425[B]25%12%10%11[B]%10%117[B]768[B]9132[B]%12%117[B]45%10)(c1ccccc1)c1ccccc1

> <NMREDATA_ASSIGNMENT>
Rh12, -973.00, 12

> <NMREDATA_1D_103Rh>
-973.00, L=Rh12

$$$$
RhMan0925_0085.mol
  ChemDraw12152511342D

M  V30 COUNTS 51 76 0 0 0
  0.335606 -4.030865  0.000000 B    0  0  0  0  0  0  0
  0.335606 -3.236832  0.000000 B    0  0  0  0  0  0  0
 -0.921613 -2.707477  0.000000 B    0  0  0  0  0  0  0
 -0.326089 -1.847274  0.000000 B    0  0  0  0  0  0  0
  1.230336 -1.728881  0.000000 B    0  0  0  0  0  0  0
  1.625910 -2.740561  0.000000 C    0  0  0  0  0  0  0
  1.218313 -0.478587  0.000000 B    0  0  0  0  0  0  0
 -0.344554 -0.490609  0.000000 B    0  0  0  0  0  0  0
 -0.993746 -1.464396  0.000000 C    0  0  0  0  0  0  0
  1.951659 -1.476418  0.000000 B    0  0  0  0  0  0  0
  0.328681 -2.113587  0.000000 B    0  0  0  0  0  0  0
  0.316659  0.086450  0.000000 Rh   0  0  0  0  0  0  0
  1.031130  0.498950  0.000000 H    0  0  0  0  0  0  0
  0.310004  0.883339  0.000000 P    0  0  0  0  0  0  0
 -0.397812  0.498950  0.000000 P    0  0  0  0  0  0  0
  3.105426  0.444827  0.000000 C    0  0  0  0  0  0  0
  0.510947  2.395247  0.000000 C    0  0  0  0  0  0  0
  2.729310  1.764382  0.000000 C    0  0  0  0  0  0  0
 -2.252642 -0.435899  0.000000 C    0  0  0  0  0  0  0
 -1.840460  2.141451  0.000000 C    0  0  0  0  0  0  0
 -3.118231  1.049094  0.000000 C    0  0  0  0  0  0  0
 -2.942566  0.016461  0.000000 C    0  0  0  0  0  0  0
 -3.679284 -0.354850  0.000000 C    0  0  0  0  0  0  0
 -3.726077 -1.178522  0.000000 C    0  0  0  0  0  0  0
 -3.036153 -1.630883  0.000000 C    0  0  0  0  0  0  0
 -2.299436 -1.259571  0.000000 C    0  0  0  0  0  0  0
 -3.380927  1.831152  0.000000 C    0  0  0  0  0  0  0
 -4.189558  1.994680  0.000000 C    0  0  0  0  0  0  0
 -4.735493  1.376148  0.000000 C    0  0  0  0  0  0  0
 -4.472795  0.594090  0.000000 C    0  0  0  0  0  0  0
 -3.664165  0.430562  0.000000 C    0  0  0  0  0  0  0
 -1.575867  2.922870  0.000000 C    0  0  0  0  0  0  0
 -2.120299  3.542723  0.000000 C    0  0  0  0  0  0  0
 -2.929324  3.381158  0.000000 C    0  0  0  0  0  0  0
 -3.193917  2.599739  0.000000 C    0  0  0  0  0  0  0
 -2.649485  1.979885  0.000000 C    0  0  0  0  0  0  0
  1.273535  2.710022  0.000000 C    0  0  0  0  0  0  0
  1.382228  3.527831  0.000000 C    0  0  0  0  0  0  0
  0.728331  4.030865  0.000000 C    0  0  0  0  0  0  0
 -0.034259  3.716090  0.000000 C    0  0  0  0  0  0  0
 -0.142951  2.898282  0.000000 C    0  0  0  0  0  0  0
  3.361391  1.234195  0.000000 C    0  0  0  0  0  0  0
  4.136587  1.516500  0.000000 C    0  0  0  0  0  0  0
  4.279702  2.328992  0.000000 C    0  0  0  0  0  0  0
  3.647621  2.859179  0.000000 C    0  0  0  0  0  0  0
  2.872425  2.576874  0.000000 C    0  0  0  0  0  0  0
  3.402220 -0.324939  0.000000 C    0  0  0  0  0  0  0
  4.217252 -0.452791  0.000000 C    0  0  0  0  0  0  0
  4.735493  0.189122  0.000000 C    0  0  0  0  0  0  0
  4.438700  0.958888  0.000000 C    0  0  0  0  0  0  0
  3.623666  1.086740  0.000000 C    0  0  0  0  0  0  0
  1  2  1  0  0  0  0
  1  6  1  0  0  0  0
  1  3  1  0  0  0  0
  1  4  1  0  0  0  0
  1  5  1  0  0  0  0
  2  3  1  0  0  0  0
  3  4  1  0  0  0  0
  4  5  1  0  0  0  0
  6  2  1  0  0  0  0
 10 11  1  0  0  0  0
 11  9  1  0  0  0  0
  9  8  1  0  0  0  0
  8  7  1  0  0  0  0
  7 10  1  0  0  0  0
 11  2  1  0  0  0  0
 11  3  1  0  0  0  0
  9  3  1  0  0  0  0
  9  4  1  0  0  0  0
  8  4  1  0  0  0  0
  8  5  1  0  0  0  0
  7  5  1  0  0  0  0
  7  4  1  0  0  0  0
 10  6  1  0  0  0  0
 10  5  1  0  0  0  0
  5  2  1  0  0  0  0
 12  8  1  0  0  0  0
 12  7  1  0  0  0  0
 12 10  1  0  0  0  0
 12 11  1  0  0  0  0
 12  9  1  0  0  0  0
 12 13  1  0  0  0  0
 12 14  1  0  0  0  0
 12 15  1  0  0  0  0
 14 16  1  0  0  0  0
 14 17  1  0  0  0  0
 14 18  1  0  0  0  0
 15 19  1  0  0  0  0
 15 20  1  0  0  0  0
 15 21  1  0  0  0  0
 19 22  2  0  0  0  0
 22 23  1  0  0  0  0
 23 24  2  0  0  0  0
 24 25  1  0  0  0  0
 25 26  2  0  0  0  0
 26 19  1  0  0  0  0
 21 27  2  0  0  0  0
 27 28  1  0  0  0  0
 28 29  2  0  0  0  0
 29 30  1  0  0  0  0
 30 31  2  0  0  0  0
 31 21  1  0  0  0  0
 20 32  2  0  0  0  0
 32 33  1  0  0  0  0
 33 34  2  0  0  0  0
 34 35  1  0  0  0  0
 35 36  2  0  0  0  0
 36 20  1  0  0  0  0
 17 37  2  0  0  0  0
 37 38  1  0  0  0  0
 38 39  2  0  0  0  0
 39 40  1  0  0  0  0
 40 41  2  0  0  0  0
 41 17  1  0  0  0  0
 18 42  2  0  0  0  0
 42 43  1  0  0  0  0
 43 44  2  0  0  0  0
 44 45  1  0  0  0  0
 45 46  2  0  0  0  0
 46 18  1  0  0  0  0
 16 47  2  0  0  0  0
 47 48  1  0  0  0  0
 48 49  2  0  0  0  0
 49 50  1  0  0  0  0
 50 51  2  0  0  0  0
 51 16  1  0  0  0  0
  6  5  1  0  0  0  0
M  END
> <NMREDATA_VERSION>
1.1

> <NMREDATA_LEVEL>
0

> <NMREDATA_SOLVENT>
CDCl3

> <NMREDATA_TEMPERATURE>
298

> <NMREDATA_FORMULA>
C38H33B9P2Rh

> <NMREDATA_SMILES>
c1ccc(cc1)P([RhH]1234(P(c5ccccc5)(c5ccccc5)c5ccccc5)[B]567[C]891[B]1%103[B]3%114[B]425C25[B]%12%137[B]768[B]6913[B]%10%1142%12[B]5%1376)(c1ccccc1)c1ccccc1

> <NMREDATA_ASSIGNMENT>
Rh12, -923.00, 12

> <NMREDATA_1D_103Rh>
-923.00, L=Rh12

$$$$
RhMan0925_0086.mol
  ChemDraw12152511562D

M  V30 COUNTS 42 51 0 0 0
 -1.064467  0.661382  0.000000 Rh   0  0  0  0  0  0  0
 -2.422892  1.091550  0.000000 C    0  0  0  0  0  0  0
 -2.422892  0.266550  0.000000 C    0  0  0  0  0  0  0
 -3.006255 -0.316813  0.000000 C    0  0  0  0  0  0  0
 -2.422892 -0.900176  0.000000 C    0  0  0  0  0  0  0
 -2.422892 -0.075176  0.000000 C    0  0  0  0  0  0  0
 -3.006255  0.508187  0.000000 C    0  0  0  0  0  0  0
 -3.589618  0.266550  0.000000 C    0  0  0  0  0  0  0
 -0.850942  1.458271  0.000000 C    0  0  0  0  0  0  0
 -0.054053  1.671797  0.000000 C    0  0  0  0  0  0  0
  0.159473  2.468685  0.000000 C    0  0  0  0  0  0  0
 -0.423890  3.052048  0.000000 C    0  0  0  0  0  0  0
 -1.220779  2.838523  0.000000 C    0  0  0  0  0  0  0
 -1.434305  2.041634  0.000000 C    0  0  0  0  0  0  0
 -2.231193  2.255160  0.000000 C    0  0  0  0  0  0  0
 -2.444719  3.052048  0.000000 C    0  0  0  0  0  0  0
 -3.241608  3.265574  0.000000 C    0  0  0  0  0  0  0
 -3.824971  2.682211  0.000000 C    0  0  0  0  0  0  0
 -3.611445  1.885323  0.000000 C    0  0  0  0  0  0  0
 -2.814556  1.671797  0.000000 C    0  0  0  0  0  0  0
  0.967087 -0.407690  0.000000 P    0  0  0  0  0  0  0
  1.681558  0.004810  0.000000 C    0  0  0  0  0  0  0
  1.379587 -1.122161  0.000000 C    0  0  0  0  0  0  0
  0.383724 -0.991053  0.000000 C    0  0  0  0  0  0  0
 -0.413165 -0.777528  0.000000 C    0  0  0  0  0  0  0
 -0.996528 -1.360891  0.000000 C    0  0  0  0  0  0  0
 -0.783002 -2.157779  0.000000 C    0  0  0  0  0  0  0
  0.013887 -2.371305  0.000000 C    0  0  0  0  0  0  0
  0.597250 -1.787942  0.000000 C    0  0  0  0  0  0  0
  0.967087 -1.836632  0.000000 C    0  0  0  0  0  0  0
  1.379587 -2.551103  0.000000 C    0  0  0  0  0  0  0
  2.204587 -2.551103  0.000000 C    0  0  0  0  0  0  0
  2.617087 -1.836632  0.000000 C    0  0  0  0  0  0  0
  2.204587 -1.122161  0.000000 C    0  0  0  0  0  0  0
  2.396029 -0.407690  0.000000 C    0  0  0  0  0  0  0
  3.110500  0.004810  0.000000 C    0  0  0  0  0  0  0
  3.110500  0.829810  0.000000 C    0  0  0  0  0  0  0
  2.396029  1.242310  0.000000 C    0  0  0  0  0  0  0
  1.681558  0.829810  0.000000 C    0  0  0  0  0  0  0
  3.824971  1.242310  0.000000 F    0  0  0  0  0  0  0
  2.617087 -3.265574  0.000000 F    0  0  0  0  0  0  0
 -1.366365 -2.741142  0.000000 F    0  0  0  0  0  0  0
  2  3  2  0  0  0  0
  3  4  1  0  0  0  0
  4  5  1  0  0  0  0
  5  6  2  0  0  0  0
  6  7  1  0  0  0  0
  7  2  1  0  0  0  0
  4  8  1  0  0  0  0
  7  8  1  0  0  0  0
  6  1  1  0  0  0  0
  5  1  1  0  0  0  0
  2  1  1  0  0  0  0
  3  1  1  0  0  0  0
  1  9  1  0  0  0  0
  9 10  2  0  0  0  0
 10 11  1  0  0  0  0
 11 12  2  0  0  0  0
 12 13  1  0  0  0  0
 13 14  2  0  0  0  0
 14  9  1  0  0  0  0
 14 15  1  0  0  0  0
 15 16  2  0  0  0  0
 16 17  1  0  0  0  0
 17 18  2  0  0  0  0
 18 19  1  0  0  0  0
 19 20  2  0  0  0  0
 20 15  1  0  0  0  0
  1 21  1  0  0  0  0
 21 22  1  0  0  0  0
 21 23  1  0  0  0  0
 21 24  1  0  0  0  0
 24 25  2  0  0  0  0
 25 26  1  0  0  0  0
 26 27  2  0  0  0  0
 27 28  1  0  0  0  0
 28 29  2  0  0  0  0
 29 24  1  0  0  0  0
 23 30  2  0  0  0  0
 30 31  1  0  0  0  0
 31 32  2  0  0  0  0
 32 33  1  0  0  0  0
 33 34  2  0  0  0  0
 34 23  1  0  0  0  0
 22 35  2  0  0  0  0
 35 36  1  0  0  0  0
 36 37  2  0  0  0  0
 37 38  1  0  0  0  0
 38 39  2  0  0  0  0
 39 22  1  0  0  0  0
 37 40  1  0  0  0  0
 32 41  1  0  0  0  0
 27 42  1  0  0  0  0
M  END
> <NMREDATA_VERSION>
1.1

> <NMREDATA_LEVEL>
0

> <NMREDATA_SOLVENT>
CD2Cl2

> <NMREDATA_TEMPERATURE>
298

> <NMREDATA_FORMULA>
C37H26F3PRh

> <NMREDATA_SMILES>
Fc1ccc(cc1)P([Rh]123(c4ccccc4c4ccccc4)C4=C3C3C2=C1C4C3)(c1ccc(cc1)F)c1ccc(cc1)F

> <NMREDATA_ASSIGNMENT>
Rh1, 670.00, 1

> <NMREDATA_1D_103Rh>
670.00, L=Rh1

$$$$
RhMan0925_0087.mol
  ChemDraw12152512032D

M  V30 COUNTS 29 32 0 0 0
 -1.067323  1.239388  0.000000 Rh   0  0  0  0  0  0  0
 -1.781794  1.651888  0.000000 O    0  0  0  0  0  0  0
 -1.650686  0.656025  0.000000 O    0  0  0  0  0  0  0
 -2.475686  0.656025  0.000000 C    0  0  0  0  0  0  0
 -2.606794  1.651888  0.000000 C    0  0  0  0  0  0  0
 -3.190157  1.068525  0.000000 C    0  0  0  0  0  0  0
 -0.483960  1.822751  0.000000 C    0  0  0  0  0  0  0
  0.099403  2.406115  0.000000 O    0  0  0  0  0  0  0
 -0.483960  0.656025  0.000000 P    0  0  0  0  0  0  0
 -0.878609 -0.820076  0.000000 C    0  0  0  0  0  0  0
  1.558152  0.960112  0.000000 C    0  0  0  0  0  0  0
  1.095582 -0.878235  0.000000 C    0  0  0  0  0  0  0
  0.893665 -1.678145  0.000000 C    0  0  0  0  0  0  0
  1.485449 -2.252964  0.000000 C    0  0  0  0  0  0  0
  2.279149 -2.027874  0.000000 C    0  0  0  0  0  0  0
  2.481065 -1.227964  0.000000 C    0  0  0  0  0  0  0
  1.889281 -0.653145  0.000000 C    0  0  0  0  0  0  0
  2.071384  0.314188  0.000000 C    0  0  0  0  0  0  0
  2.887386  0.435698  0.000000 C    0  0  0  0  0  0  0
  3.190157  1.203132  0.000000 C    0  0  0  0  0  0  0
  2.676926  1.849056  0.000000 C    0  0  0  0  0  0  0
  1.860923  1.727546  0.000000 C    0  0  0  0  0  0  0
 -1.675380 -1.034041  0.000000 C    0  0  0  0  0  0  0
 -1.888467 -1.831047  0.000000 C    0  0  0  0  0  0  0
 -1.304783 -2.414089  0.000000 C    0  0  0  0  0  0  0
 -0.508011 -2.200124  0.000000 C    0  0  0  0  0  0  0
 -0.294925 -1.403118  0.000000 C    0  0  0  0  0  0  0
 -2.922508  2.414089  0.000000 C    0  0  0  0  0  0  0
 -2.689212 -0.140864  0.000000 C    0  0  0  0  0  0  0
  1  2  1  0  0  0  0
  1  3  1  0  0  0  0
  3  4  1  0  0  0  0
  2  5  1  0  0  0  0
  4  6  4  0  0  0  0
  5  6  4  0  0  0  0
  1  7  1  0  0  0  0
  7  8  3  0  0  0  0
  1  9  1  0  0  0  0
  9 10  1  0  0  0  0
  9 11  1  0  0  0  0
  9 12  1  0  0  0  0
 12 13  2  0  0  0  0
 13 14  1  0  0  0  0
 14 15  2  0  0  0  0
 15 16  1  0  0  0  0
 16 17  2  0  0  0  0
 17 12  1  0  0  0  0
 11 18  2  0  0  0  0
 18 19  1  0  0  0  0
 19 20  2  0  0  0  0
 20 21  1  0  0  0  0
 21 22  2  0  0  0  0
 22 11  1  0  0  0  0
 10 23  2  0  0  0  0
 23 24  1  0  0  0  0
 24 25  2  0  0  0  0
 25 26  1  0  0  0  0
 26 27  2  0  0  0  0
 27 10  1  0  0  0  0
  5 28  1  0  0  0  0
  4 29  1  0  0  0  0
M  END
> <NMREDATA_VERSION>
1.1

> <NMREDATA_LEVEL>
0

> <NMREDATA_SOLVENT>
CDCl3

> <NMREDATA_TEMPERATURE>
298

> <NMREDATA_FORMULA>
C24H24O3PRh

> <NMREDATA_SMILES>
[O]#C[Rh]1(OC(C)C=C(O1)C)P(c1ccccc1)(c1ccccc1)c1ccccc1

> <NMREDATA_ASSIGNMENT>
Rh1, 262.00, 1

> <NMREDATA_1D_103Rh>
262.00, L=Rh1

$$$$
RhMan0925_0088.mol
  ChemDraw01122615472D

M  V30 COUNTS 32 35 0 0 0
 -0.792177  0.858289  0.000000 Rh   0  0  0  0  0  0  0
 -1.506648  1.270789  0.000000 O    0  0  0  0  0  0  0
 -1.375541  0.274926  0.000000 O    0  0  0  0  0  0  0
 -2.200541  0.274926  0.000000 C    0  0  0  0  0  0  0
 -2.331648  1.270789  0.000000 C    0  0  0  0  0  0  0
 -2.915011  0.687426  0.000000 C    0  0  0  0  0  0  0
 -0.208814  1.441651  0.000000 C    0  0  0  0  0  0  0
  0.374548  2.025014  0.000000 O    0  0  0  0  0  0  0
  0.008504 -0.280049  0.000000 P    0  0  0  0  0  0  0
 -0.603462 -1.201176  0.000000 C    0  0  0  0  0  0  0
  1.833297  0.579012  0.000000 C    0  0  0  0  0  0  0
  1.370727 -1.259335  0.000000 C    0  0  0  0  0  0  0
  1.168811 -2.059244  0.000000 C    0  0  0  0  0  0  0
  1.760595 -2.634064  0.000000 C    0  0  0  0  0  0  0
  2.554294 -2.408973  0.000000 C    0  0  0  0  0  0  0
  2.756211 -1.609065  0.000000 C    0  0  0  0  0  0  0
  2.164428 -1.034245  0.000000 C    0  0  0  0  0  0  0
  2.346529 -0.066912  0.000000 C    0  0  0  0  0  0  0
  3.162532  0.054597  0.000000 C    0  0  0  0  0  0  0
  3.465303  0.822031  0.000000 C    0  0  0  0  0  0  0
  2.952071  1.467955  0.000000 C    0  0  0  0  0  0  0
  2.136068  1.346447  0.000000 C    0  0  0  0  0  0  0
 -1.400235 -1.415140  0.000000 C    0  0  0  0  0  0  0
 -1.613321 -2.212148  0.000000 C    0  0  0  0  0  0  0
 -1.029637 -2.795189  0.000000 C    0  0  0  0  0  0  0
 -0.232866 -2.581224  0.000000 C    0  0  0  0  0  0  0
 -0.019779 -1.784217  0.000000 C    0  0  0  0  0  0  0
 -2.647362  2.032990  0.000000 C    0  0  0  0  0  0  0
 -2.414067 -0.521964  0.000000 C    0  0  0  0  0  0  0
 -2.145134  2.687505  0.000000 F    0  0  0  0  0  0  0
 -3.465303  2.140673  0.000000 F    0  0  0  0  0  0  0
 -2.963076  2.795189  0.000000 F    0  0  0  0  0  0  0
  1  2  1  0  0  0  0
  1  3  1  0  0  0  0
  3  4  2  0  0  0  0
  2  5  1  0  0  0  0
  4  6  1  0  0  0  0
  5  6  2  0  0  0  0
  1  7  1  0  0  0  0
  7  8  3  0  0  0  0
  1  9  1  0  0  0  0
  9 10  1  0  0  0  0
  9 11  1  0  0  0  0
  9 12  1  0  0  0  0
 12 13  2  0  0  0  0
 13 14  1  0  0  0  0
 14 15  2  0  0  0  0
 15 16  1  0  0  0  0
 16 17  2  0  0  0  0
 17 12  1  0  0  0  0
 11 18  2  0  0  0  0
 18 19  1  0  0  0  0
 19 20  2  0  0  0  0
 20 21  1  0  0  0  0
 21 22  2  0  0  0  0
 22 11  1  0  0  0  0
 10 23  2  0  0  0  0
 23 24  1  0  0  0  0
 24 25  2  0  0  0  0
 25 26  1  0  0  0  0
 26 27  2  0  0  0  0
 27 10  1  0  0  0  0
  5 28  1  0  0  0  0
  4 29  1  0  0  0  0
 28 30  1  0  0  0  0
 28 31  1  0  0  0  0
 28 32  1  0  0  0  0
M  END
> <NMREDATA_VERSION>
1.1

> <NMREDATA_LEVEL>
0

> <NMREDATA_SOLVENT>
CDCl3

> <NMREDATA_TEMPERATURE>
298

> <NMREDATA_FORMULA>
C24H20F3O3PRh

> <NMREDATA_SMILES>
[O]#C[Rh]1([O]=C(C)C=C(O1)C(F)(F)F)P(c1ccccc1)(c1ccccc1)c1ccccc1

> <NMREDATA_ASSIGNMENT>
Rh1, 287.00, 1

> <NMREDATA_1D_103Rh>
287.00, L=Rh1

$$$$
RhMan0925_0089.mol
  ChemDraw01122615462D

M  V30 COUNTS 32 35 0 0 0
 -0.328048 -0.738586  0.000000 Rh   0  0  0  0  0  0  0
 -1.042519 -0.326086  0.000000 O    0  0  0  0  0  0  0
 -0.911413 -1.321950  0.000000 O    0  0  0  0  0  0  0
 -1.736412 -1.321950  0.000000 C    0  0  0  0  0  0  0
 -1.867519 -0.326086  0.000000 C    0  0  0  0  0  0  0
 -2.450882 -0.909450  0.000000 C    0  0  0  0  0  0  0
  0.210034 -1.785333  0.000000 C    0  0  0  0  0  0  0
  0.622534 -2.499805  0.000000 O    0  0  0  0  0  0  0
  0.419085  0.416075  0.000000 P    0  0  0  0  0  0  0
 -0.592143  2.499805  0.000000 C    0  0  0  0  0  0  0
  1.369170  1.042416  0.000000 C    0  0  0  0  0  0  0
  0.748116 -0.139361  0.000000 C    0  0  0  0  0  0  0
  0.546201 -0.939270  0.000000 C    0  0  0  0  0  0  0
  1.137984 -1.514090  0.000000 C    0  0  0  0  0  0  0
  1.931683 -1.288998  0.000000 C    0  0  0  0  0  0  0
  2.133600 -0.489090  0.000000 C    0  0  0  0  0  0  0
  1.541816  0.085729  0.000000 C    0  0  0  0  0  0  0
  1.882401  0.396491  0.000000 C    0  0  0  0  0  0  0
  2.698404  0.518000  0.000000 C    0  0  0  0  0  0  0
  3.001175  1.285435  0.000000 C    0  0  0  0  0  0  0
  2.487943  1.931358  0.000000 C    0  0  0  0  0  0  0
  1.671939  1.809849  0.000000 C    0  0  0  0  0  0  0
 -1.388914  2.285842  0.000000 C    0  0  0  0  0  0  0
 -1.602000  1.488836  0.000000 C    0  0  0  0  0  0  0
 -1.018316  0.905793  0.000000 C    0  0  0  0  0  0  0
 -0.221545  1.119758  0.000000 C    0  0  0  0  0  0  0
 -0.008458  1.916764  0.000000 C    0  0  0  0  0  0  0
 -2.183233  0.436113  0.000000 C    0  0  0  0  0  0  0
 -1.949936 -2.118838  0.000000 C    0  0  0  0  0  0  0
 -3.001175  0.543797  0.000000 F    0  0  0  0  0  0  0
 -2.498947  1.198314  0.000000 F    0  0  0  0  0  0  0
 -2.837750  0.938343  0.000000 F    0  0  0  0  0  0  0
  1  2  1  0  0  0  0
  1  3  1  0  0  0  0
  3  4  2  0  0  0  0
  2  5  1  0  0  0  0
  4  6  1  0  0  0  0
  5  6  2  0  0  0  0
  1  7  1  0  0  0  0
  7  8  3  0  0  0  0
  1  9  1  0  0  0  0
  9 10  1  0  0  0  0
  9 11  1  0  0  0  0
  9 12  1  0  0  0  0
 12 13  2  0  0  0  0
 13 14  1  0  0  0  0
 14 15  2  0  0  0  0
 15 16  1  0  0  0  0
 16 17  2  0  0  0  0
 17 12  1  0  0  0  0
 11 18  2  0  0  0  0
 18 19  1  0  0  0  0
 19 20  2  0  0  0  0
 20 21  1  0  0  0  0
 21 22  2  0  0  0  0
 22 11  1  0  0  0  0
 10 23  2  0  0  0  0
 23 24  1  0  0  0  0
 24 25  2  0  0  0  0
 25 26  1  0  0  0  0
 26 27  2  0  0  0  0
 27 10  1  0  0  0  0
  5 28  1  0  0  0  0
  4 29  1  0  0  0  0
 28 30  1  0  0  0  0
 28 31  1  0  0  0  0
 28 32  1  0  0  0  0
M  END
> <NMREDATA_VERSION>
1.1

> <NMREDATA_LEVEL>
0

> <NMREDATA_SOLVENT>
CDCl3

> <NMREDATA_TEMPERATURE>
298

> <NMREDATA_FORMULA>
C24H20F3O3PRh

> <NMREDATA_SMILES>
[O]#C[Rh]1([O]=C(C)C=C(O1)C(F)(F)F)P(c1ccccc1)(c1ccccc1)c1ccccc1

> <NMREDATA_ASSIGNMENT>
Rh1, 301.00, 1

> <NMREDATA_1D_103Rh>
301.00, L=Rh1

$$$$
RhMan0925_0090.mol
  ChemDraw01122615492D

 42 55  0  0  0  0  0  0  0  0999 V2000
   -3.1302   -0.5164    0.0000 Fe   0  0  0  0  0  0  0  0  0  0  0  0
   -5.0832   -0.9221    0.0000 C    0  0  0  0  0  0  0  0  0  0  0  0
   -5.0832   -1.7471    0.0000 C    0  0  0  0  0  0  0  0  0  0  0  0
   -4.2986   -2.0021    0.0000 C    0  0  0  0  0  0  0  0  0  0  0  0
   -3.8136   -1.3346    0.0000 C    0  0  0  0  0  0  0  0  0  0  0  0
   -4.2986   -0.6672    0.0000 C    0  0  0  0  0  0  0  0  0  0  0  0
    1.7088    0.8004    0.0000 Rh   0  0  0  0  0  0  0  0  0  0  0  0
    0.8132    1.2129    0.0000 O    0  0  0  0  0  0  0  0  0  0  0  0
    0.9444    0.2170    0.0000 O    0  0  0  0  0  0  0  0  0  0  0  0
    0.1194    0.2170    0.0000 C    0  0  0  0  0  0  0  0  0  0  0  0
   -0.0118    1.2129    0.0000 C    0  0  0  0  0  0  0  0  0  0  0  0
   -0.5951    0.6295    0.0000 C    0  0  0  0  0  0  0  0  0  0  0  0
    2.2243    1.8139    0.0000 C    0  0  0  0  0  0  0  0  0  0  0  0
    2.6368    2.5284    0.0000 O    0  0  0  0  0  0  0  0  0  0  0  0
    2.4786   -0.2184    0.0000 P    0  0  0  0  0  4  0  0  0  0  0  0
    1.6485   -0.9421    0.0000 C    0  0  0  0  0  0  0  0  0  0  0  0
    3.4512   -0.4524    0.0000 C    0  0  0  0  0  0  0  0  0  0  0  0
    2.7171   -1.3625    0.0000 C    0  0  0  0  0  0  0  0  0  0  0  0
    2.5151   -2.1624    0.0000 C    0  0  0  0  0  0  0  0  0  0  0  0
    3.1069   -2.7373    0.0000 C    0  0  0  0  0  0  0  0  0  0  0  0
    3.9006   -2.5122    0.0000 C    0  0  0  0  0  0  0  0  0  0  0  0
    4.1025   -1.7122    0.0000 C    0  0  0  0  0  0  0  0  0  0  0  0
    3.5107   -1.1374    0.0000 C    0  0  0  0  0  0  0  0  0  0  0  0
    3.9644   -1.0984    0.0000 C    0  0  0  0  0  0  0  0  0  0  0  0
    4.7804   -0.9768    0.0000 C    0  0  0  0  0  0  0  0  0  0  0  0
    5.0832   -0.2094    0.0000 C    0  0  0  0  0  0  0  0  0  0  0  0
    4.5700    0.4365    0.0000 C    0  0  0  0  0  0  0  0  0  0  0  0
    3.7540    0.3150    0.0000 C    0  0  0  0  0  0  0  0  0  0  0  0
    0.8518   -1.1561    0.0000 C    0  0  0  0  0  0  0  0  0  0  0  0
    0.6387   -1.9531    0.0000 C    0  0  0  0  0  0  0  0  0  0  0  0
    1.2223   -2.5361    0.0000 C    0  0  0  0  0  0  0  0  0  0  0  0
    2.0191   -2.3222    0.0000 C    0  0  0  0  0  0  0  0  0  0  0  0
    2.2322   -1.5251    0.0000 C    0  0  0  0  0  0  0  0  0  0  0  0
   -0.3274    1.9751    0.0000 C    0  0  0  0  0  0  0  0  0  0  0  0
   -1.1454    2.0828    0.0000 H    0  0  0  0  0  0  0  0  0  0  0  0
   -0.6432    2.7373    0.0000 H    0  0  0  0  0  0  0  0  0  0  0  0
   -0.9820    2.4773    0.0000 H    0  0  0  0  0  0  0  0  0  0  0  0
   -2.2550   -0.1682    0.0000 C    0  0  0  0  0  0  0  0  0  0  0  0
   -2.2550   -0.9932    0.0000 C    0  0  0  0  0  0  0  0  0  0  0  0
   -1.4703   -1.2481    0.0000 C    0  0  0  0  0  0  0  0  0  0  0  0
   -0.9855   -0.5807    0.0000 C    0  0  0  0  0  0  0  0  0  0  0  0
   -1.4703    0.0868    0.0000 C    0  0  0  0  0  0  0  0  0  0  0  0
  2  3  1  0  0
  3  4  1  0  0
  4  5  1  0  0
  5  6  1  0  0
  6  2  1  0  0
  7  8  1  0  0
  7  9  1  0  0
  9 10  1  0  0
  8 11  2  0  0
 10 12  2  0  0
 11 12  1  0  0
  7 13  1  0  0
 13 14  3  0  0
  7 15  1  0  0
 15 16  1  0  0
 15 17  1  0  0
 15 18  1  0  0
 18 19  2  0  0
 19 20  1  0  0
 20 21  2  0  0
 21 22  1  0  0
 22 23  2  0  0
 23 18  1  0  0
 17 24  2  0  0
 24 25  1  0  0
 25 26  2  0  0
 26 27  1  0  0
 27 28  2  0  0
 28 17  1  0  0
 16 29  2  0  0
 29 30  1  0  0
 30 31  2  0  0
 31 32  1  0  0
 32 33  2  0  0
 33 16  1  0  0
 11 34  1  0  0
 34 35  1  0  0
 34 36  1  0  0
 34 37  1  0  0
 38 39  1  0  0
 39 40  1  0  0
 40 41  1  0  0
 41 42  1  0  0
 42 38  1  0  0
 10 41  1  0  0
 38  1  1  0  0
 39  1  1  0  0
  5  1  1  0  0
  6  1  1  0  0
 40  1  1  0  0
 41  1  1  0  0
 42  1  1  0  0
  4  1  1  0  0
  3  1  1  0  0
  2  1  1  0  0
M  END
> <NMREDATA_VERSION>
1.1

> <NMREDATA_LEVEL>
0

> <NMREDATA_SOLVENT>
CDCl3

> <NMREDATA_TEMPERATURE>
298

> <NMREDATA_FORMULA>
C33H29FeO3PRh

> <NMREDATA_SMILES>
[O]#C[Rh]1([O]=C(C)C=C(O1)C12C3[Fe]4567892(C1C5C34)C1C8C7C6C91)P(c1ccccc1)(c1ccccc1)c1ccccc1

> <NMREDATA_ASSIGNMENT>
Rh7, 279.00, 7

> <NMREDATA_1D_103Rh>
279.00, L=Rh7

$$$$
RhMan0925_0091.mol
  ChemDraw01122615482D

 42 55  0  0  0  0  0  0  0  0999 V2000
   -3.0496   -1.8224    0.0000 Fe   0  0  0  0  0  0  0  0  0  0  0  0
   -5.0722   -1.0391    0.0000 C    0  0  0  0  0  0  0  0  0  0  0  0
   -5.0722   -1.8641    0.0000 C    0  0  0  0  0  0  0  0  0  0  0  0
   -4.2875   -2.1191    0.0000 C    0  0  0  0  0  0  0  0  0  0  0  0
   -3.8026   -1.4516    0.0000 C    0  0  0  0  0  0  0  0  0  0  0  0
   -4.2875   -0.7842    0.0000 C    0  0  0  0  0  0  0  0  0  0  0  0
    1.7429   -0.5950    0.0000 Rh   0  0  0  0  0  0  0  0  0  0  0  0
    1.0285   -0.1825    0.0000 O    0  0  0  0  0  0  0  0  0  0  0  0
    1.1596   -1.1783    0.0000 O    0  0  0  0  0  0  0  0  0  0  0  0
    0.3346   -1.1783    0.0000 C    0  0  0  0  0  0  0  0  0  0  0  0
    0.2035   -0.1825    0.0000 C    0  0  0  0  0  0  0  0  0  0  0  0
   -0.3799   -0.7658    0.0000 C    0  0  0  0  0  0  0  0  0  0  0  0
    2.2810   -1.6417    0.0000 C    0  0  0  0  0  0  0  0  0  0  0  0
    2.6935   -2.3562    0.0000 O    0  0  0  0  0  0  0  0  0  0  0  0
    2.4901    0.5597    0.0000 P    0  0  0  0  0  4  0  0  0  0  0  0
    1.4789    2.6434    0.0000 C    0  0  0  0  0  0  0  0  0  0  0  0
    3.4402    1.1860    0.0000 C    0  0  0  0  0  0  0  0  0  0  0  0
    2.8191    0.0042    0.0000 C    0  0  0  0  0  0  0  0  0  0  0  0
    2.6172   -0.7956    0.0000 C    0  0  0  0  0  0  0  0  0  0  0  0
    3.2090   -1.3705    0.0000 C    0  0  0  0  0  0  0  0  0  0  0  0
    4.0027   -1.1454    0.0000 C    0  0  0  0  0  0  0  0  0  0  0  0
    4.2046   -0.3455    0.0000 C    0  0  0  0  0  0  0  0  0  0  0  0
    3.6128    0.2294    0.0000 C    0  0  0  0  0  0  0  0  0  0  0  0
    3.9534    0.5401    0.0000 C    0  0  0  0  0  0  0  0  0  0  0  0
    4.7694    0.6616    0.0000 C    0  0  0  0  0  0  0  0  0  0  0  0
    5.0722    1.4291    0.0000 C    0  0  0  0  0  0  0  0  0  0  0  0
    4.5589    2.0750    0.0000 C    0  0  0  0  0  0  0  0  0  0  0  0
    3.7430    1.9535    0.0000 C    0  0  0  0  0  0  0  0  0  0  0  0
    0.6821    2.4295    0.0000 C    0  0  0  0  0  0  0  0  0  0  0  0
    0.4690    1.6325    0.0000 C    0  0  0  0  0  0  0  0  0  0  0  0
    1.0527    1.0495    0.0000 C    0  0  0  0  0  0  0  0  0  0  0  0
    1.8494    1.2634    0.0000 C    0  0  0  0  0  0  0  0  0  0  0  0
    2.0625    2.0604    0.0000 C    0  0  0  0  0  0  0  0  0  0  0  0
   -0.1123    0.5798    0.0000 C    0  0  0  0  0  0  0  0  0  0  0  0
   -0.9302    0.6874    0.0000 H    0  0  0  0  0  0  0  0  0  0  0  0
   -0.4279    1.3419    0.0000 H    0  0  0  0  0  0  0  0  0  0  0  0
   -0.7667    1.0820    0.0000 H    0  0  0  0  0  0  0  0  0  0  0  0
   -2.0397   -1.5635    0.0000 C    0  0  0  0  0  0  0  0  0  0  0  0
   -2.0397   -2.3885    0.0000 C    0  0  0  0  0  0  0  0  0  0  0  0
   -1.2551   -2.6434    0.0000 C    0  0  0  0  0  0  0  0  0  0  0  0
   -0.7702   -1.9760    0.0000 C    0  0  0  0  0  0  0  0  0  0  0  0
   -1.2551   -1.3086    0.0000 C    0  0  0  0  0  0  0  0  0  0  0  0
  2  3  1  0  0
  3  4  1  0  0
  4  5  1  0  0
  5  6  1  0  0
  6  2  1  0  0
  1  4  1  0  0
  7  8  1  0  0
  7  9  1  0  0
  9 10  2  0  0
  8 11  1  0  0
 10 12  1  0  0
 11 12  2  0  0
  7 13  1  0  0
 13 14  3  0  0
  7 15  1  0  0
 15 16  1  0  0
 15 17  1  0  0
 15 18  1  0  0
 18 19  2  0  0
 19 20  1  0  0
 20 21  2  0  0
 21 22  1  0  0
 22 23  2  0  0
 23 18  1  0  0
 17 24  2  0  0
 24 25  1  0  0
 25 26  2  0  0
 26 27  1  0  0
 27 28  2  0  0
 28 17  1  0  0
 16 29  2  0  0
 29 30  1  0  0
 30 31  2  0  0
 31 32  1  0  0
 32 33  2  0  0
 33 16  1  0  0
 11 34  1  0  0
 34 35  1  0  0
 34 36  1  0  0
 34 37  1  0  0
 38 39  1  0  0
 39 40  1  0  0
 40 41  1  0  0
 41 42  1  0  0
 42 38  1  0  0
 10 41  1  0  0
  1 39  1  0  0
 40  1  1  0  0
 41  1  1  0  0
 42  1  1  0  0
 38  1  1  0  0
  5  1  1  0  0
  3  1  1  0  0
  2  1  1  0  0
  6  1  1  0  0
M  END
> <NMREDATA_VERSION>
1.1

> <NMREDATA_LEVEL>
0

> <NMREDATA_SOLVENT>
CDCl3

> <NMREDATA_TEMPERATURE>
298

> <NMREDATA_FORMULA>
C33H29FeO3PRh

> <NMREDATA_SMILES>
[O]#C[Rh]1(OC(=CC(=[O]1)C12C3[Fe]4567892(C1C5C34)C1C8C7C6C91)C)P(c1ccccc1)(c1ccccc1)c1ccccc1

> <NMREDATA_ASSIGNMENT>
Rh7, 293.00, 7

> <NMREDATA_1D_103Rh>
293.00, L=Rh7

$$$$
RhMan0925_0092.mol
  ChemDraw01122615512D

 49 72  0  0  0  0  0  0  0  0999 V2000
    1.4589    0.3965    0.0000 Rh   0  0  0  0  0  0  0  0  0  0  0  0
    0.5633    0.8090    0.0000 O    0  0  0  0  0  0  0  0  0  0  0  0
    0.6945   -0.1869    0.0000 O    0  0  0  0  0  0  0  0  0  0  0  0
   -0.1305   -0.1869    0.0000 C    0  0  0  0  0  0  0  0  0  0  0  0
   -0.2617    0.8090    0.0000 C    0  0  0  0  0  0  0  0  0  0  0  0
   -0.8450    0.2256    0.0000 C    0  0  0  0  0  0  0  0  0  0  0  0
    1.9744    1.4100    0.0000 C    0  0  0  0  0  0  0  0  0  0  0  0
    2.3869    2.1244    0.0000 O    0  0  0  0  0  0  0  0  0  0  0  0
    2.2287   -0.6224    0.0000 P    0  0  0  0  0  5  0  0  0  0  0  0
    1.3986   -1.3460    0.0000 C    0  0  0  0  0  0  0  0  0  0  0  0
    3.2014   -0.8564    0.0000 C    0  0  0  0  0  0  0  0  0  0  0  0
    2.4672   -1.7665    0.0000 C    0  0  0  0  0  0  0  0  0  0  0  0
    2.2652   -2.5663    0.0000 C    0  0  0  0  0  0  0  0  0  0  0  0
    2.8571   -3.1412    0.0000 C    0  0  0  0  0  0  0  0  0  0  0  0
    3.6508   -2.9161    0.0000 C    0  0  0  0  0  0  0  0  0  0  0  0
    3.8527   -2.1162    0.0000 C    0  0  0  0  0  0  0  0  0  0  0  0
    3.2609   -1.5414    0.0000 C    0  0  0  0  0  0  0  0  0  0  0  0
    3.7146   -1.5023    0.0000 C    0  0  0  0  0  0  0  0  0  0  0  0
    4.5307   -1.3808    0.0000 C    0  0  0  0  0  0  0  0  0  0  0  0
    4.8334   -0.6133    0.0000 C    0  0  0  0  0  0  0  0  0  0  0  0
    4.3202    0.0326    0.0000 C    0  0  0  0  0  0  0  0  0  0  0  0
    3.5042   -0.0889    0.0000 C    0  0  0  0  0  0  0  0  0  0  0  0
    0.6019   -1.5600    0.0000 C    0  0  0  0  0  0  0  0  0  0  0  0
    0.3888   -2.3570    0.0000 C    0  0  0  0  0  0  0  0  0  0  0  0
    0.9724   -2.9401    0.0000 C    0  0  0  0  0  0  0  0  0  0  0  0
    1.7692   -2.7261    0.0000 C    0  0  0  0  0  0  0  0  0  0  0  0
    1.9823   -1.9291    0.0000 C    0  0  0  0  0  0  0  0  0  0  0  0
   -2.8805   -1.6085    0.0000 Fe   0  0  0  0  0  0  0  0  0  0  0  0
   -4.8334   -2.0142    0.0000 C    0  0  0  0  0  0  0  0  0  0  0  0
   -4.8334   -2.8391    0.0000 C    0  0  0  0  0  0  0  0  0  0  0  0
   -4.0488   -3.0941    0.0000 C    0  0  0  0  0  0  0  0  0  0  0  0
   -3.5638   -2.4266    0.0000 C    0  0  0  0  0  0  0  0  0  0  0  0
   -4.0488   -1.7593    0.0000 C    0  0  0  0  0  0  0  0  0  0  0  0
   -2.0053   -1.2603    0.0000 C    0  0  0  0  0  0  0  0  0  0  0  0
   -2.0053   -2.0853    0.0000 C    0  0  0  0  0  0  0  0  0  0  0  0
   -1.2206   -2.3402    0.0000 C    0  0  0  0  0  0  0  0  0  0  0  0
   -0.7358   -1.6728    0.0000 C    0  0  0  0  0  0  0  0  0  0  0  0
   -1.2206   -1.0053    0.0000 C    0  0  0  0  0  0  0  0  0  0  0  0
   -2.1070    2.5380    0.0000 Fe   0  0  0  0  0  0  0  0  0  0  0  0
   -4.0599    2.1323    0.0000 C    0  0  0  0  0  0  0  0  0  0  0  0
   -4.0599    1.3074    0.0000 C    0  0  0  0  0  0  0  0  0  0  0  0
   -3.2754    1.0524    0.0000 C    0  0  0  0  0  0  0  0  0  0  0  0
   -2.7904    1.7198    0.0000 C    0  0  0  0  0  0  0  0  0  0  0  0
   -3.2754    2.3872    0.0000 C    0  0  0  0  0  0  0  0  0  0  0  0
   -1.2319    2.8862    0.0000 C    0  0  0  0  0  0  0  0  0  0  0  0
   -1.2319    2.0612    0.0000 C    0  0  0  0  0  0  0  0  0  0  0  0
   -0.4472    1.8063    0.0000 C    0  0  0  0  0  0  0  0  0  0  0  0
    0.0376    2.4737    0.0000 C    0  0  0  0  0  0  0  0  0  0  0  0
   -0.4472    3.1412    0.0000 C    0  0  0  0  0  0  0  0  0  0  0  0
  1  2  1  0  0
  1  3  1  0  0
  3  4  2  0  0
  2  5  1  0  0
  4  6  1  0  0
  5  6  2  0  0
  1  7  1  0  0
  7  8  3  0  0
  1  9  1  0  0
  9 10  1  0  0
  9 11  1  0  0
  9 12  1  0  0
 12 13  2  0  0
 13 14  1  0  0
 14 15  2  0  0
 15 16  1  0  0
 16 17  2  0  0
 17 12  1  0  0
 11 18  2  0  0
 18 19  1  0  0
 19 20  2  0  0
 20 21  1  0  0
 21 22  2  0  0
 22 11  1  0  0
 10 23  2  0  0
 23 24  1  0  0
 24 25  2  0  0
 25 26  1  0  0
 26 27  2  0  0
 27 10  1  0  0
 29 30  1  0  0
 30 31  1  0  0
 31 32  1  0  0
 32 33  1  0  0
 33 29  1  0  0
 34 35  1  0  0
 35 36  1  0  0
 36 37  1  0  0
 37 38  1  0  0
 38 34  1  0  0
 34 28  1  0  0
 35 28  1  0  0
 32 28  1  0  0
 33 28  1  0  0
 36 28  1  0  0
 37 28  1  0  0
 38 28  1  0  0
 31 28  1  0  0
 30 28  1  0  0
 29 28  1  0  0
  4 38  1  0  0
 40 41  1  0  0
 41 42  1  0  0
 42 43  1  0  0
 43 44  1  0  0
 44 40  1  0  0
 45 46  1  0  0
 46 47  1  0  0
 47 48  1  0  0
 48 49  1  0  0
 49 45  1  0  0
 45 39  1  0  0
 46 39  1  0  0
 43 39  1  0  0
 44 39  1  0  0
 47 39  1  0  0
 48 39  1  0  0
 49 39  1  0  0
 42 39  1  0  0
 41 39  1  0  0
 40 39  1  0  0
 47  5  1  0  0
M  END
> <NMREDATA_VERSION>
1.1

> <NMREDATA_LEVEL>
0

> <NMREDATA_SOLVENT>
CDCl3

> <NMREDATA_TEMPERATURE>
298

> <NMREDATA_FORMULA>
C42H35Fe2O3PRh

> <NMREDATA_SMILES>
[O]#C[Rh]1(OC(=CC(=[O]1)C12C3[Fe]4567892(C1C5C34)C1C8C7C6C91)C12C3[Fe]4567892(C1C5C34)C1C8C7C6C91)P(c1ccccc1)(c1ccccc1)c1ccccc1

> <NMREDATA_ASSIGNMENT>
Rh1, 311.00, 1

> <NMREDATA_1D_103Rh>
311.00, L=Rh1

$$$$
RhMan0925_0093.mol
  ChemDraw01122615522D

 44 58  0  0  0  0  0  0  0  0999 V2000
    1.4696    0.2626    0.0000 Rh   0  0  0  0  0  0  0  0  0  0  0  0
    0.5740    0.6751    0.0000 O    0  0  0  0  0  0  0  0  0  0  0  0
    0.7052   -0.3208    0.0000 O    0  0  0  0  0  0  0  0  0  0  0  0
   -0.1198   -0.3208    0.0000 C    0  0  0  0  0  0  0  0  0  0  0  0
   -0.2510    0.6751    0.0000 C    0  0  0  0  0  0  0  0  0  0  0  0
   -0.8343    0.0917    0.0000 C    0  0  0  0  0  0  0  0  0  0  0  0
    1.9851    1.2761    0.0000 C    0  0  0  0  0  0  0  0  0  0  0  0
    2.3976    1.9906    0.0000 O    0  0  0  0  0  0  0  0  0  0  0  0
    2.2394   -0.7562    0.0000 P    0  0  0  0  0  4  0  0  0  0  0  0
    1.4093   -1.4799    0.0000 C    0  0  0  0  0  0  0  0  0  0  0  0
    3.2121   -0.9902    0.0000 C    0  0  0  0  0  0  0  0  0  0  0  0
    2.4779   -1.9003    0.0000 C    0  0  0  0  0  0  0  0  0  0  0  0
    2.2759   -2.7002    0.0000 C    0  0  0  0  0  0  0  0  0  0  0  0
    2.8678   -3.2750    0.0000 C    0  0  0  0  0  0  0  0  0  0  0  0
    3.6615   -3.0499    0.0000 C    0  0  0  0  0  0  0  0  0  0  0  0
    3.8634   -2.2500    0.0000 C    0  0  0  0  0  0  0  0  0  0  0  0
    3.2716   -1.6752    0.0000 C    0  0  0  0  0  0  0  0  0  0  0  0
    3.7253   -1.6361    0.0000 C    0  0  0  0  0  0  0  0  0  0  0  0
    4.5414   -1.5146    0.0000 C    0  0  0  0  0  0  0  0  0  0  0  0
    4.8441   -0.7472    0.0000 C    0  0  0  0  0  0  0  0  0  0  0  0
    4.3309   -0.1013    0.0000 C    0  0  0  0  0  0  0  0  0  0  0  0
    3.5149   -0.2228    0.0000 C    0  0  0  0  0  0  0  0  0  0  0  0
    0.6126   -1.6939    0.0000 C    0  0  0  0  0  0  0  0  0  0  0  0
    0.3995   -2.4909    0.0000 C    0  0  0  0  0  0  0  0  0  0  0  0
    0.9831   -3.0739    0.0000 C    0  0  0  0  0  0  0  0  0  0  0  0
    1.7799   -2.8599    0.0000 C    0  0  0  0  0  0  0  0  0  0  0  0
    1.9930   -2.0630    0.0000 C    0  0  0  0  0  0  0  0  0  0  0  0
   -0.4417    1.6554    0.0000 C    0  0  0  0  0  0  0  0  0  0  0  0
    0.1808    2.1968    0.0000 C    0  0  0  0  0  0  0  0  0  0  0  0
    0.0233    3.0066    0.0000 C    0  0  0  0  0  0  0  0  0  0  0  0
   -0.7568    3.2750    0.0000 C    0  0  0  0  0  0  0  0  0  0  0  0
   -1.3794    2.7337    0.0000 C    0  0  0  0  0  0  0  0  0  0  0  0
   -1.2218    1.9239    0.0000 C    0  0  0  0  0  0  0  0  0  0  0  0
   -2.8912   -1.7508    0.0000 Fe   0  0  0  0  0  0  0  0  0  0  0  0
   -4.8441   -2.1565    0.0000 C    0  0  0  0  0  0  0  0  0  0  0  0
   -4.8441   -2.9815    0.0000 C    0  0  0  0  0  0  0  0  0  0  0  0
   -4.0596   -3.2365    0.0000 C    0  0  0  0  0  0  0  0  0  0  0  0
   -3.5746   -2.5690    0.0000 C    0  0  0  0  0  0  0  0  0  0  0  0
   -4.0596   -1.9016    0.0000 C    0  0  0  0  0  0  0  0  0  0  0  0
   -2.0160   -1.4026    0.0000 C    0  0  0  0  0  0  0  0  0  0  0  0
   -2.0160   -2.2276    0.0000 C    0  0  0  0  0  0  0  0  0  0  0  0
   -1.2314   -2.4825    0.0000 C    0  0  0  0  0  0  0  0  0  0  0  0
   -0.7466   -1.8151    0.0000 C    0  0  0  0  0  0  0  0  0  0  0  0
   -1.2314   -1.1476    0.0000 C    0  0  0  0  0  0  0  0  0  0  0  0
  1  2  1  0  0
  1  3  1  0  0
  3  4  2  0  0
  2  5  1  0  0
  4  6  1  0  0
  5  6  2  0  0
  1  7  1  0  0
  7  8  3  0  0
  1  9  1  0  0
  9 10  1  0  0
  9 11  1  0  0
  9 12  1  0  0
 12 13  2  0  0
 13 14  1  0  0
 14 15  2  0  0
 15 16  1  0  0
 16 17  2  0  0
 17 12  1  0  0
 11 18  2  0  0
 18 19  1  0  0
 19 20  2  0  0
 20 21  1  0  0
 21 22  2  0  0
 22 11  1  0  0
 10 23  2  0  0
 23 24  1  0  0
 24 25  2  0  0
 25 26  1  0  0
 26 27  2  0  0
 27 10  1  0  0
  5 28  1  0  0
 28 29  2  0  0
 29 30  1  0  0
 30 31  2  0  0
 31 32  1  0  0
 32 33  2  0  0
 33 28  1  0  0
 35 36  1  0  0
 36 37  1  0  0
 37 38  1  0  0
 38 39  1  0  0
 39 35  1  0  0
 40 41  1  0  0
 41 42  1  0  0
 42 43  1  0  0
 43 44  1  0  0
 44 40  1  0  0
 40 34  1  0  0
 41 34  1  0  0
 38 34  1  0  0
 39 34  1  0  0
 42 34  1  0  0
 43 34  1  0  0
 44 34  1  0  0
 37 34  1  0  0
 36 34  1  0  0
 35 34  1  0  0
 44  4  1  0  0
M  END
> <NMREDATA_VERSION>
1.1

> <NMREDATA_LEVEL>
0

> <NMREDATA_SOLVENT>
CDCl3

> <NMREDATA_TEMPERATURE>
298

> <NMREDATA_FORMULA>
C38H31FeO3PRh

> <NMREDATA_SMILES>
[O]#C[Rh]1(OC(=CC(=[O]1)C12C3[Fe]4567892(C1C5C34)C1C8C7C6C91)c1ccccc1)P(c1ccccc1)(c1ccccc1)c1ccccc1

> <NMREDATA_ASSIGNMENT>
Rh1, 301.00, 1

> <NMREDATA_1D_103Rh>
301.00, L=Rh1

$$$$
RhMan0925_0094.mol
  ChemDraw01122615522D

 44 58  0  0  0  0  0  0  0  0999 V2000
    1.6214    0.2312    0.0000 Rh   0  0  0  0  0  0  0  0  0  0  0  0
    0.7258    0.6437    0.0000 O    0  0  0  0  0  0  0  0  0  0  0  0
    0.8570   -0.3521    0.0000 O    0  0  0  0  0  0  0  0  0  0  0  0
    0.0320   -0.3521    0.0000 C    0  0  0  0  0  0  0  0  0  0  0  0
   -0.0992    0.6437    0.0000 C    0  0  0  0  0  0  0  0  0  0  0  0
   -0.6825    0.0604    0.0000 C    0  0  0  0  0  0  0  0  0  0  0  0
    2.0911   -0.4374    0.0000 C    0  0  0  0  0  0  0  0  0  0  0  0
    2.4622   -1.0802    0.0000 O    0  0  0  0  0  0  0  0  0  0  0  0
    2.8667    1.3180    0.0000 P    0  0  0  0  0  4  0  0  0  0  0  0
    1.6064    3.1300    0.0000 C    0  0  0  0  0  0  0  0  0  0  0  0
    3.0470    2.2387    0.0000 C    0  0  0  0  0  0  0  0  0  0  0  0
    3.1504    0.8078    0.0000 C    0  0  0  0  0  0  0  0  0  0  0  0
    2.9485    0.0079    0.0000 C    0  0  0  0  0  0  0  0  0  0  0  0
    3.5403   -0.5669    0.0000 C    0  0  0  0  0  0  0  0  0  0  0  0
    4.3340   -0.3418    0.0000 C    0  0  0  0  0  0  0  0  0  0  0  0
    4.5359    0.4581    0.0000 C    0  0  0  0  0  0  0  0  0  0  0  0
    3.9441    1.0329    0.0000 C    0  0  0  0  0  0  0  0  0  0  0  0
    3.5602    1.5927    0.0000 C    0  0  0  0  0  0  0  0  0  0  0  0
    4.3762    1.7142    0.0000 C    0  0  0  0  0  0  0  0  0  0  0  0
    4.6790    2.4816    0.0000 C    0  0  0  0  0  0  0  0  0  0  0  0
    4.1658    3.1276    0.0000 C    0  0  0  0  0  0  0  0  0  0  0  0
    3.3498    3.0061    0.0000 C    0  0  0  0  0  0  0  0  0  0  0  0
    0.8096    2.9160    0.0000 C    0  0  0  0  0  0  0  0  0  0  0  0
    0.5965    2.1191    0.0000 C    0  0  0  0  0  0  0  0  0  0  0  0
    1.1802    1.5360    0.0000 C    0  0  0  0  0  0  0  0  0  0  0  0
    1.9770    1.7500    0.0000 C    0  0  0  0  0  0  0  0  0  0  0  0
    2.1901    2.5470    0.0000 C    0  0  0  0  0  0  0  0  0  0  0  0
   -0.2899    1.6241    0.0000 C    0  0  0  0  0  0  0  0  0  0  0  0
    0.3326    2.1654    0.0000 C    0  0  0  0  0  0  0  0  0  0  0  0
    0.1751    2.9753    0.0000 C    0  0  0  0  0  0  0  0  0  0  0  0
   -0.6050    3.2437    0.0000 C    0  0  0  0  0  0  0  0  0  0  0  0
   -1.2276    2.7023    0.0000 C    0  0  0  0  0  0  0  0  0  0  0  0
   -1.0700    1.8925    0.0000 C    0  0  0  0  0  0  0  0  0  0  0  0
   -2.7260   -1.7580    0.0000 Fe   0  0  0  0  0  0  0  0  0  0  0  0
   -4.6790   -2.1637    0.0000 C    0  0  0  0  0  0  0  0  0  0  0  0
   -4.6790   -2.9887    0.0000 C    0  0  0  0  0  0  0  0  0  0  0  0
   -3.8944   -3.2437    0.0000 C    0  0  0  0  0  0  0  0  0  0  0  0
   -3.4094   -2.5762    0.0000 C    0  0  0  0  0  0  0  0  0  0  0  0
   -3.8944   -1.9088    0.0000 C    0  0  0  0  0  0  0  0  0  0  0  0
   -1.8509   -1.4098    0.0000 C    0  0  0  0  0  0  0  0  0  0  0  0
   -1.8509   -2.2348    0.0000 C    0  0  0  0  0  0  0  0  0  0  0  0
   -1.0662   -2.4897    0.0000 C    0  0  0  0  0  0  0  0  0  0  0  0
   -0.5814   -1.8223    0.0000 C    0  0  0  0  0  0  0  0  0  0  0  0
   -1.0662   -1.1549    0.0000 C    0  0  0  0  0  0  0  0  0  0  0  0
  1  2  1  0  0
  1  3  1  0  0
  3  4  2  0  0
  2  5  1  0  0
  4  6  1  0  0
  5  6  2  0  0
  1  7  1  0  0
  7  8  3  0  0
  1  9  1  0  0
  9 10  1  0  0
  9 11  1  0  0
  9 12  1  0  0
 12 13  2  0  0
 13 14  1  0  0
 14 15  2  0  0
 15 16  1  0  0
 16 17  2  0  0
 17 12  1  0  0
 11 18  2  0  0
 18 19  1  0  0
 19 20  2  0  0
 20 21  1  0  0
 21 22  2  0  0
 22 11  1  0  0
 10 23  2  0  0
 23 24  1  0  0
 24 25  2  0  0
 25 26  1  0  0
 26 27  2  0  0
 27 10  1  0  0
  5 28  1  0  0
 28 29  2  0  0
 29 30  1  0  0
 30 31  2  0  0
 31 32  1  0  0
 32 33  2  0  0
 33 28  1  0  0
 35 36  1  0  0
 36 37  1  0  0
 37 38  1  0  0
 38 39  1  0  0
 39 35  1  0  0
 40 41  1  0  0
 41 42  1  0  0
 42 43  1  0  0
 43 44  1  0  0
 44 40  1  0  0
 40 34  1  0  0
 41 34  1  0  0
 38 34  1  0  0
 39 34  1  0  0
 42 34  1  0  0
 43 34  1  0  0
 44 34  1  0  0
 37 34  1  0  0
 36 34  1  0  0
 35 34  1  0  0
  4 44  1  0  0
M  END
> <NMREDATA_VERSION>
1.1

> <NMREDATA_LEVEL>
0

> <NMREDATA_SOLVENT>
CDCl3

> <NMREDATA_TEMPERATURE>
298

> <NMREDATA_FORMULA>
C38H31FeO3PRh

> <NMREDATA_SMILES>
[O]#C[Rh]1(OC(=CC(=[O]1)C12C3[Fe]4567892(C1C5C34)C1C8C7C6C91)c1ccccc1)P(c1ccccc1)(c1ccccc1)c1ccccc1

> <NMREDATA_ASSIGNMENT>
Rh1, 309.00, 1

> <NMREDATA_1D_103Rh>
309.00, L=Rh1

$$$$
RhMan0925_0095.mol
  ChemDraw01122615532D

 42 55  0  0  0  0  0  0  0  0999 V2000
    1.8723    1.2335    0.0000 Rh   0  0  0  0  0  0  0  0  0  0  0  0
    0.9768    1.6460    0.0000 O    0  0  0  0  0  0  0  0  0  0  0  0
    1.1078    0.6502    0.0000 O    0  0  0  0  0  0  0  0  0  0  0  0
    0.2828    0.6502    0.0000 C    0  0  0  0  0  0  0  0  0  0  0  0
    0.1517    1.6460    0.0000 C    0  0  0  0  0  0  0  0  0  0  0  0
   -0.4316    1.0627    0.0000 C    0  0  0  0  0  0  0  0  0  0  0  0
    2.4823    1.8155    0.0000 C    0  0  0  0  0  0  0  0  0  0  0  0
    3.0656    2.3989    0.0000 O    0  0  0  0  0  0  0  0  0  0  0  0
    2.0716   -0.2049    0.0000 P    0  0  0  0  0  4  0  0  0  0  0  0
    1.2460   -1.3920    0.0000 C    0  0  0  0  0  0  0  0  0  0  0  0
    2.7771   -0.6306    0.0000 C    0  0  0  0  0  0  0  0  0  0  0  0
    2.8806   -2.0614    0.0000 C    0  0  0  0  0  0  0  0  0  0  0  0
    2.6787   -2.8614    0.0000 C    0  0  0  0  0  0  0  0  0  0  0  0
    3.2704   -3.4361    0.0000 C    0  0  0  0  0  0  0  0  0  0  0  0
    4.0641   -3.2111    0.0000 C    0  0  0  0  0  0  0  0  0  0  0  0
    4.2660   -2.4111    0.0000 C    0  0  0  0  0  0  0  0  0  0  0  0
    3.6743   -1.8363    0.0000 C    0  0  0  0  0  0  0  0  0  0  0  0
    3.2903   -1.2765    0.0000 C    0  0  0  0  0  0  0  0  0  0  0  0
    4.1064   -1.1550    0.0000 C    0  0  0  0  0  0  0  0  0  0  0  0
    4.4091   -0.3876    0.0000 C    0  0  0  0  0  0  0  0  0  0  0  0
    3.8959    0.2583    0.0000 C    0  0  0  0  0  0  0  0  0  0  0  0
    3.0799    0.1368    0.0000 C    0  0  0  0  0  0  0  0  0  0  0  0
    0.4718   -1.5380    0.0000 C    0  0  0  0  0  0  0  0  0  0  0  0
    0.2588   -2.3350    0.0000 C    0  0  0  0  0  0  0  0  0  0  0  0
    0.8425   -2.9181    0.0000 C    0  0  0  0  0  0  0  0  0  0  0  0
    1.6392   -2.7041    0.0000 C    0  0  0  0  0  0  0  0  0  0  0  0
    1.8297   -1.9750    0.0000 C    0  0  0  0  0  0  0  0  0  0  0  0
   -0.0390    2.6263    0.0000 C    0  0  0  0  0  0  0  0  0  0  0  0
    0.5835    3.1677    0.0000 F    0  0  0  0  0  0  0  0  0  0  0  0
   -0.8191    2.8948    0.0000 F    0  0  0  0  0  0  0  0  0  0  0  0
   -0.1966    3.4361    0.0000 F    0  0  0  0  0  0  0  0  0  0  0  0
   -2.4562   -0.7742    0.0000 Fe   0  0  0  0  0  0  0  0  0  0  0  0
   -4.4091   -1.1799    0.0000 C    0  0  0  0  0  0  0  0  0  0  0  0
   -4.4091   -2.0048    0.0000 C    0  0  0  0  0  0  0  0  0  0  0  0
   -3.6246   -2.2598    0.0000 C    0  0  0  0  0  0  0  0  0  0  0  0
   -3.1396   -1.5924    0.0000 C    0  0  0  0  0  0  0  0  0  0  0  0
   -3.6246   -0.9250    0.0000 C    0  0  0  0  0  0  0  0  0  0  0  0
   -1.5810   -0.4260    0.0000 C    0  0  0  0  0  0  0  0  0  0  0  0
   -1.5810   -1.2510    0.0000 C    0  0  0  0  0  0  0  0  0  0  0  0
   -0.7964   -1.5059    0.0000 C    0  0  0  0  0  0  0  0  0  0  0  0
   -0.3116   -0.8385    0.0000 C    0  0  0  0  0  0  0  0  0  0  0  0
   -0.7964   -0.1710    0.0000 C    0  0  0  0  0  0  0  0  0  0  0  0
  1  2  1  0  0
  1  3  1  0  0
  3  4  2  0  0
  2  5  1  0  0
  4  6  1  0  0
  5  6  2  0  0
  1  7  1  0  0
  7  8  3  0  0
  1  9  1  0  0
  9 10  1  0  0
  9 11  1  0  0
  9 12  1  0  0
 12 13  2  0  0
 13 14  1  0  0
 14 15  2  0  0
 15 16  1  0  0
 16 17  2  0  0
 17 12  1  0  0
 11 18  2  0  0
 18 19  1  0  0
 19 20  2  0  0
 20 21  1  0  0
 21 22  2  0  0
 22 11  1  0  0
 10 23  2  0  0
 23 24  1  0  0
 24 25  2  0  0
 25 26  1  0  0
 26 27  2  0  0
 27 10  1  0  0
  5 28  1  0  0
 28 29  1  0  0
 28 30  1  0  0
 28 31  1  0  0
 33 34  1  0  0
 34 35  1  0  0
 35 36  1  0  0
 36 37  1  0  0
 37 33  1  0  0
 38 39  1  0  0
 39 40  1  0  0
 40 41  1  0  0
 41 42  1  0  0
 42 38  1  0  0
 38 32  1  0  0
 39 32  1  0  0
 36 32  1  0  0
 37 32  1  0  0
 40 32  1  0  0
 41 32  1  0  0
 42 32  1  0  0
 35 32  1  0  0
 34 32  1  0  0
 33 32  1  0  0
  4 42  1  0  0
M  END
> <NMREDATA_VERSION>
1.1

> <NMREDATA_LEVEL>
0

> <NMREDATA_SOLVENT>
CDCl3

> <NMREDATA_TEMPERATURE>
298

> <NMREDATA_FORMULA>
C33H26F3FeO3PRh

> <NMREDATA_SMILES>
[O]#C[Rh]1(OC(=CC(=[O]1)C12C3[Fe]4567892(C1C5C34)C1C8C7C6C91)C(F)(F)F)P(c1ccccc1)(c1ccccc1)c1ccccc1

> <NMREDATA_ASSIGNMENT>
Rh1, 315.00, 1

> <NMREDATA_1D_103Rh>
315.00, L=Rh1

$$$$
RhMan0925_0096.mol
  ChemDraw01122615542D

 42 55  0  0  0  0  0  0  0  0999 V2000
    1.6134    0.0592    0.0000 Rh   0  0  0  0  0  0  0  0  0  0  0  0
    0.7178    0.4717    0.0000 O    0  0  0  0  0  0  0  0  0  0  0  0
    0.8490   -0.5242    0.0000 O    0  0  0  0  0  0  0  0  0  0  0  0
    0.0240   -0.5242    0.0000 C    0  0  0  0  0  0  0  0  0  0  0  0
   -0.1072    0.4717    0.0000 C    0  0  0  0  0  0  0  0  0  0  0  0
   -0.6905   -0.1117    0.0000 C    0  0  0  0  0  0  0  0  0  0  0  0
    2.0616   -0.7598    0.0000 C    0  0  0  0  0  0  0  0  0  0  0  0
    2.0742   -1.5020    0.0000 O    0  0  0  0  0  0  0  0  0  0  0  0
    2.8587    1.1459    0.0000 P    0  0  0  0  0  4  0  0  0  0  0  0
    2.1570    1.9912    0.0000 C    0  0  0  0  0  0  0  0  0  0  0  0
    3.3398    1.7873    0.0000 C    0  0  0  0  0  0  0  0  0  0  0  0
    3.1424    0.6358    0.0000 C    0  0  0  0  0  0  0  0  0  0  0  0
    2.9405   -0.1642    0.0000 C    0  0  0  0  0  0  0  0  0  0  0  0
    3.5323   -0.7389    0.0000 C    0  0  0  0  0  0  0  0  0  0  0  0
    4.3260   -0.5139    0.0000 C    0  0  0  0  0  0  0  0  0  0  0  0
    4.5279    0.2860    0.0000 C    0  0  0  0  0  0  0  0  0  0  0  0
    3.9361    0.8609    0.0000 C    0  0  0  0  0  0  0  0  0  0  0  0
    4.1565    1.6711    0.0000 C    0  0  0  0  0  0  0  0  0  0  0  0
    4.6655    2.3204    0.0000 C    0  0  0  0  0  0  0  0  0  0  0  0
    4.3576    3.0858    0.0000 C    0  0  0  0  0  0  0  0  0  0  0  0
    3.5409    3.2020    0.0000 C    0  0  0  0  0  0  0  0  0  0  0  0
    3.0319    2.5527    0.0000 C    0  0  0  0  0  0  0  0  0  0  0  0
    2.4063    2.7776    0.0000 C    0  0  0  0  0  0  0  0  0  0  0  0
    1.8500    3.3868    0.0000 C    0  0  0  0  0  0  0  0  0  0  0  0
    1.0442    3.2095    0.0000 C    0  0  0  0  0  0  0  0  0  0  0  0
    0.7949    2.4231    0.0000 C    0  0  0  0  0  0  0  0  0  0  0  0
    1.3513    1.8140    0.0000 C    0  0  0  0  0  0  0  0  0  0  0  0
   -0.2979    1.4520    0.0000 C    0  0  0  0  0  0  0  0  0  0  0  0
    0.3246    1.9934    0.0000 F    0  0  0  0  0  0  0  0  0  0  0  0
   -1.0780    1.7205    0.0000 F    0  0  0  0  0  0  0  0  0  0  0  0
   -0.4555    2.2618    0.0000 F    0  0  0  0  0  0  0  0  0  0  0  0
   -2.7125   -1.9011    0.0000 Fe   0  0  0  0  0  0  0  0  0  0  0  0
   -4.6655   -2.3068    0.0000 C    0  0  0  0  0  0  0  0  0  0  0  0
   -4.6655   -3.1318    0.0000 C    0  0  0  0  0  0  0  0  0  0  0  0
   -3.8809   -3.3868    0.0000 C    0  0  0  0  0  0  0  0  0  0  0  0
   -3.3959   -2.7193    0.0000 C    0  0  0  0  0  0  0  0  0  0  0  0
   -3.8809   -2.0519    0.0000 C    0  0  0  0  0  0  0  0  0  0  0  0
   -1.8374   -1.5530    0.0000 C    0  0  0  0  0  0  0  0  0  0  0  0
   -1.8374   -2.3779    0.0000 C    0  0  0  0  0  0  0  0  0  0  0  0
   -1.0527   -2.6328    0.0000 C    0  0  0  0  0  0  0  0  0  0  0  0
   -0.5679   -1.9654    0.0000 C    0  0  0  0  0  0  0  0  0  0  0  0
   -1.0527   -1.2980    0.0000 C    0  0  0  0  0  0  0  0  0  0  0  0
  1  2  1  0  0
  1  3  1  0  0
  3  4  2  0  0
  2  5  1  0  0
  4  6  1  0  0
  5  6  2  0  0
  1  7  1  0  0
  7  8  3  0  0
  1  9  1  0  0
  9 10  1  0  0
  9 11  1  0  0
  9 12  1  0  0
 12 13  2  0  0
 13 14  1  0  0
 14 15  2  0  0
 15 16  1  0  0
 16 17  2  0  0
 17 12  1  0  0
 11 18  2  0  0
 18 19  1  0  0
 19 20  2  0  0
 20 21  1  0  0
 21 22  2  0  0
 22 11  1  0  0
 10 23  2  0  0
 23 24  1  0  0
 24 25  2  0  0
 25 26  1  0  0
 26 27  2  0  0
 27 10  1  0  0
  5 28  1  0  0
 28 29  1  0  0
 28 30  1  0  0
 28 31  1  0  0
 33 34  1  0  0
 34 35  1  0  0
 35 36  1  0  0
 36 37  1  0  0
 37 33  1  0  0
 38 39  1  0  0
 39 40  1  0  0
 40 41  1  0  0
 41 42  1  0  0
 42 38  1  0  0
 38 32  1  0  0
 39 32  1  0  0
 36 32  1  0  0
 37 32  1  0  0
 40 32  1  0  0
 41 32  1  0  0
 42 32  1  0  0
 35 32  1  0  0
 34 32  1  0  0
 33 32  1  0  0
 42  4  1  0  0
M  END
> <NMREDATA_VERSION>
1.1

> <NMREDATA_LEVEL>
0

> <NMREDATA_SOLVENT>
CDCl3

> <NMREDATA_TEMPERATURE>
298

> <NMREDATA_FORMULA>
C33H26F3FeO3PRh

> <NMREDATA_SMILES>
[O]#C[Rh]1(OC(=CC(=[O]1)C12C3[Fe]4567892(C1C5C34)C1C8C7C6C91)C(F)(F)F)P(c1ccccc1)(c1ccccc1)c1ccccc1

> <NMREDATA_ASSIGNMENT>
Rh1, 315.00, 1

> <NMREDATA_1D_103Rh>
315.00, L=Rh1

$$$$
RhMan0925_0097.mol
  ChemDraw01122615542D

M  V30 COUNTS 39 44 0 0 0
  0.789507  0.828593  0.000000 Rh   0  0  0  0  0  0  0
 -0.106086  1.241093  0.000000 O    0  0  0  0  0  0  0
  0.025021  0.245229  0.000000 O    0  0  0  0  0  0  0
 -0.799979  0.245229  0.000000 C    0  0  0  0  0  0  0
 -0.931086  1.241093  0.000000 C    0  0  0  0  0  0  0
 -1.514449  0.657729  0.000000 C    0  0  0  0  0  0  0
  1.463912  1.560995  0.000000 C    0  0  0  0  0  0  0
  2.047276  2.144358  0.000000 O    0  0  0  0  0  0  0
  0.946094 -0.590699  0.000000 P    0  0  0  0  0  0  0
  0.163166 -1.796882  0.000000 C    0  0  0  0  0  0  0
  1.694311 -1.035511  0.000000 C    0  0  0  0  0  0  0
  1.797751 -2.466331  0.000000 C    0  0  0  0  0  0  0
  1.595834 -3.266240  0.000000 C    0  0  0  0  0  0  0
  2.187618 -3.841060  0.000000 C    0  0  0  0  0  0  0
  2.981318 -3.615969  0.000000 C    0  0  0  0  0  0  0
  3.183234 -2.816060  0.000000 C    0  0  0  0  0  0  0
  2.591451 -2.241241  0.000000 C    0  0  0  0  0  0  0
  2.207542 -1.681435  0.000000 C    0  0  0  0  0  0  0
  3.023546 -1.559927  0.000000 C    0  0  0  0  0  0  0
  3.326316 -0.792493  0.000000 C    0  0  0  0  0  0  0
  2.813084 -0.146569  0.000000 C    0  0  0  0  0  0  0
  1.997082 -0.268077  0.000000 C    0  0  0  0  0  0  0
 -0.610964 -1.942924  0.000000 C    0  0  0  0  0  0  0
 -0.824051 -2.739930  0.000000 C    0  0  0  0  0  0  0
 -0.240366 -3.322972  0.000000 C    0  0  0  0  0  0  0
  0.556405 -3.109008  0.000000 C    0  0  0  0  0  0  0
  0.746851 -2.379924  0.000000 C    0  0  0  0  0  0  0
 -1.904768 -0.552472  0.000000 C    0  0  0  0  0  0  0
 -1.121826  2.221432  0.000000 C    0  0  0  0  0  0  0
 -2.657449 -0.214690  0.000000 C    0  0  0  0  0  0  0
 -3.326316 -0.697640  0.000000 C    0  0  0  0  0  0  0
 -3.242504 -1.518371  0.000000 C    0  0  0  0  0  0  0
 -2.489823 -1.856153  0.000000 C    0  0  0  0  0  0  0
 -1.820955 -1.373204  0.000000 C    0  0  0  0  0  0  0
 -0.499289  2.762792  0.000000 C    0  0  0  0  0  0  0
 -0.656851  3.572605  0.000000 C    0  0  0  0  0  0  0
 -1.436952  3.841060  0.000000 C    0  0  0  0  0  0  0
 -2.059491  3.299699  0.000000 C    0  0  0  0  0  0  0
 -1.901927  2.489886  0.000000 C    0  0  0  0  0  0  0
  1  2  1  0  0  0  0
  1  3  1  0  0  0  0
  3  4  2  0  0  0  0
  2  5  1  0  0  0  0
  4  6  1  0  0  0  0
  5  6  2  0  0  0  0
  1  7  1  0  0  0  0
  7  8  3  0  0  0  0
  1  9  1  0  0  0  0
  9 10  1  0  0  0  0
  9 11  1  0  0  0  0
  9 12  1  0  0  0  0
 12 13  2  0  0  0  0
 13 14  1  0  0  0  0
 14 15  2  0  0  0  0
 15 16  1  0  0  0  0
 16 17  2  0  0  0  0
 17 12  1  0  0  0  0
 11 18  2  0  0  0  0
 18 19  1  0  0  0  0
 19 20  2  0  0  0  0
 20 21  1  0  0  0  0
 21 22  2  0  0  0  0
 22 11  1  0  0  0  0
 10 23  2  0  0  0  0
 23 24  1  0  0  0  0
 24 25  2  0  0  0  0
 25 26  1  0  0  0  0
 26 27  2  0  0  0  0
 27 10  1  0  0  0  0
  4 28  1  0  0  0  0
  5 29  1  0  0  0  0
 28 30  2  0  0  0  0
 30 31  1  0  0  0  0
 31 32  2  0  0  0  0
 32 33  1  0  0  0  0
 33 34  2  0  0  0  0
 34 28  1  0  0  0  0
 29 35  2  0  0  0  0
 35 36  1  0  0  0  0
 36 37  2  0  0  0  0
 37 38  1  0  0  0  0
 38 39  2  0  0  0  0
 39 29  1  0  0  0  0
M  END
> <NMREDATA_VERSION>
1.1

> <NMREDATA_LEVEL>
0

> <NMREDATA_SOLVENT>
CDCl3

> <NMREDATA_TEMPERATURE>
298

> <NMREDATA_FORMULA>
C34H27O3PRh

> <NMREDATA_SMILES>
[O]#C[Rh]1(OC(=CC(=[O]1)c1ccccc1)c1ccccc1)P(c1ccccc1)(c1ccccc1)c1ccccc1

> <NMREDATA_ASSIGNMENT>
Rh1, 303.00, 1

> <NMREDATA_1D_103Rh>
303.00, L=Rh1

$$$$
RhMan0925_0098.mol
  ChemDraw01122615542D

M  V30 COUNTS 37 41 0 0 0
  0.789507  1.233501  0.000000 Rh   0  0  0  0  0  0  0
 -0.106086  1.646001  0.000000 O    0  0  0  0  0  0  0
  0.025021  0.650138  0.000000 O    0  0  0  0  0  0  0
 -0.799979  0.650138  0.000000 C    0  0  0  0  0  0  0
 -0.931086  1.646001  0.000000 C    0  0  0  0  0  0  0
 -1.514449  1.062637  0.000000 C    0  0  0  0  0  0  0
  1.377975  1.858481  0.000000 C    0  0  0  0  0  0  0
  1.961338  2.441842  0.000000 O    0  0  0  0  0  0  0
  1.010547 -0.140436  0.000000 P    0  0  0  0  0  0  0
  0.163166 -1.391975  0.000000 C    0  0  0  0  0  0  0
  1.694311 -0.630605  0.000000 C    0  0  0  0  0  0  0
  1.797751 -2.061425  0.000000 C    0  0  0  0  0  0  0
  1.595834 -2.861333  0.000000 C    0  0  0  0  0  0  0
  2.187618 -3.436153  0.000000 C    0  0  0  0  0  0  0
  2.981318 -3.211062  0.000000 C    0  0  0  0  0  0  0
  3.183234 -2.411154  0.000000 C    0  0  0  0  0  0  0
  2.591451 -1.836333  0.000000 C    0  0  0  0  0  0  0
  2.207542 -1.276528  0.000000 C    0  0  0  0  0  0  0
  3.023546 -1.155018  0.000000 C    0  0  0  0  0  0  0
  3.326316 -0.387585  0.000000 C    0  0  0  0  0  0  0
  2.813084  0.258339  0.000000 C    0  0  0  0  0  0  0
  1.997082  0.136829  0.000000 C    0  0  0  0  0  0  0
 -0.610964 -1.538017  0.000000 C    0  0  0  0  0  0  0
 -0.824051 -2.335024  0.000000 C    0  0  0  0  0  0  0
 -0.240366 -2.918066  0.000000 C    0  0  0  0  0  0  0
  0.556405 -2.704100  0.000000 C    0  0  0  0  0  0  0
  0.746851 -1.975015  0.000000 C    0  0  0  0  0  0  0
 -1.904768 -0.147565  0.000000 C    0  0  0  0  0  0  0
 -1.121826  2.626339  0.000000 C    0  0  0  0  0  0  0
 -2.657449  0.190218  0.000000 C    0  0  0  0  0  0  0
 -3.326316 -0.292733  0.000000 C    0  0  0  0  0  0  0
 -3.242504 -1.113463  0.000000 C    0  0  0  0  0  0  0
 -2.489823 -1.451246  0.000000 C    0  0  0  0  0  0  0
 -1.820955 -0.968295  0.000000 C    0  0  0  0  0  0  0
 -1.901927  2.894793  0.000000 F    0  0  0  0  0  0  0
 -0.499289  3.167698  0.000000 F    0  0  0  0  0  0  0
 -1.279390  3.436153  0.000000 F    0  0  0  0  0  0  0
  1  2  1  0  0  0  0
  1  3  1  0  0  0  0
  3  4  2  0  0  0  0
  2  5  1  0  0  0  0
  4  6  1  0  0  0  0
  5  6  2  0  0  0  0
  1  7  1  0  0  0  0
  7  8  3  0  0  0  0
  1  9  1  0  0  0  0
  9 10  1  0  0  0  0
  9 11  1  0  0  0  0
  9 12  1  0  0  0  0
 12 13  2  0  0  0  0
 13 14  1  0  0  0  0
 14 15  2  0  0  0  0
 15 16  1  0  0  0  0
 16 17  2  0  0  0  0
 17 12  1  0  0  0  0
 11 18  2  0  0  0  0
 18 19  1  0  0  0  0
 19 20  2  0  0  0  0
 20 21  1  0  0  0  0
 21 22  2  0  0  0  0
 22 11  1  0  0  0  0
 10 23  2  0  0  0  0
 23 24  1  0  0  0  0
 24 25  2  0  0  0  0
 25 26  1  0  0  0  0
 26 27  2  0  0  0  0
 27 10  1  0  0  0  0
  4 28  1  0  0  0  0
  5 29  1  0  0  0  0
 28 30  2  0  0  0  0
 30 31  1  0  0  0  0
 31 32  2  0  0  0  0
 32 33  1  0  0  0  0
 33 34  2  0  0  0  0
 34 28  1  0  0  0  0
 35 29  1  0  0  0  0
 29 36  1  0  0  0  0
 29 37  1  0  0  0  0
M  END
> <NMREDATA_VERSION>
1.1

> <NMREDATA_LEVEL>
0

> <NMREDATA_SOLVENT>
CDCl3

> <NMREDATA_TEMPERATURE>
298

> <NMREDATA_FORMULA>
C29H22F3O3PRh

> <NMREDATA_SMILES>
[O]#C[Rh]1([O]=C(C=C(O1)C(F)(F)F)c1ccccc1)P(c1ccccc1)(c1ccccc1)c1ccccc1

> <NMREDATA_ASSIGNMENT>
Rh1, 317.00, 1

> <NMREDATA_1D_103Rh>
317.00, L=Rh1

$$$$
RhMan0925_0099.mol
  ChemDraw01122615552D

M  V30 COUNTS 37 41 0 0 0
  0.155576 -0.569929  0.000000 Rh   0  0  0  0  0  0  0
 -0.740018 -0.157429  0.000000 O    0  0  0  0  0  0  0
 -0.608910 -1.153292  0.000000 O    0  0  0  0  0  0  0
 -1.433910 -1.153292  0.000000 C    0  0  0  0  0  0  0
 -1.565018 -0.157429  0.000000 C    0  0  0  0  0  0  0
 -2.148381 -0.740792  0.000000 C    0  0  0  0  0  0  0
  0.741928 -1.213577  0.000000 C    0  0  0  0  0  0  0
  1.315607 -1.806465  0.000000 O    0  0  0  0  0  0  0
  2.147933  1.445067  0.000000 P    0  0  0  0  0  0  0
  1.524101  2.013528  0.000000 C    0  0  0  0  0  0  0
  2.328243  2.365734  0.000000 C    0  0  0  0  0  0  0
  2.431683  0.934913  0.000000 C    0  0  0  0  0  0  0
  2.229768  0.135004  0.000000 C    0  0  0  0  0  0  0
  2.821551 -0.439816  0.000000 C    0  0  0  0  0  0  0
  3.615250 -0.214725  0.000000 C    0  0  0  0  0  0  0
  3.817167  0.585184  0.000000 C    0  0  0  0  0  0  0
  3.225383  1.160004  0.000000 C    0  0  0  0  0  0  0
  2.841475  1.719810  0.000000 C    0  0  0  0  0  0  0
  3.657476  1.841319  0.000000 C    0  0  0  0  0  0  0
  3.960247  2.608752  0.000000 C    0  0  0  0  0  0  0
  3.447017  3.254677  0.000000 C    0  0  0  0  0  0  0
  2.631014  3.133167  0.000000 C    0  0  0  0  0  0  0
  1.544523  2.801050  0.000000 C    0  0  0  0  0  0  0
  0.810344  3.177355  0.000000 C    0  0  0  0  0  0  0
  0.117364  2.729690  0.000000 C    0  0  0  0  0  0  0
  0.158564  1.905719  0.000000 C    0  0  0  0  0  0  0
  0.831122  1.565863  0.000000 C    0  0  0  0  0  0  0
 -2.538698 -1.950995  0.000000 C    0  0  0  0  0  0  0
 -1.755757  0.822908  0.000000 C    0  0  0  0  0  0  0
 -3.291380 -1.613212  0.000000 C    0  0  0  0  0  0  0
 -3.960247 -2.096163  0.000000 C    0  0  0  0  0  0  0
 -3.876434 -2.916894  0.000000 C    0  0  0  0  0  0  0
 -3.123754 -3.254677  0.000000 C    0  0  0  0  0  0  0
 -2.454886 -2.771726  0.000000 C    0  0  0  0  0  0  0
 -2.535859  1.091364  0.000000 F    0  0  0  0  0  0  0
 -1.133220  1.364269  0.000000 F    0  0  0  0  0  0  0
 -1.913321  1.632724  0.000000 F    0  0  0  0  0  0  0
  1  2  1  0  0  0  0
  1  3  1  0  0  0  0
  3  4  2  0  0  0  0
  2  5  1  0  0  0  0
  4  6  1  0  0  0  0
  5  6  2  0  0  0  0
  1  7  1  0  0  0  0
  7  8  3  0  0  0  0
  1  9  1  0  0  0  0
  9 10  1  0  0  0  0
  9 11  1  0  0  0  0
  9 12  1  0  0  0  0
 12 13  2  0  0  0  0
 13 14  1  0  0  0  0
 14 15  2  0  0  0  0
 15 16  1  0  0  0  0
 16 17  2  0  0  0  0
 17 12  1  0  0  0  0
 11 18  2  0  0  0  0
 18 19  1  0  0  0  0
 19 20  2  0  0  0  0
 20 21  1  0  0  0  0
 21 22  2  0  0  0  0
 22 11  1  0  0  0  0
 10 23  2  0  0  0  0
 23 24  1  0  0  0  0
 24 25  2  0  0  0  0
 25 26  1  0  0  0  0
 26 27  2  0  0  0  0
 27 10  1  0  0  0  0
  4 28  1  0  0  0  0
  5 29  1  0  0  0  0
 28 30  2  0  0  0  0
 30 31  1  0  0  0  0
 31 32  2  0  0  0  0
 32 33  1  0  0  0  0
 33 34  2  0  0  0  0
 34 28  1  0  0  0  0
 35 29  1  0  0  0  0
 29 36  1  0  0  0  0
 29 37  1  0  0  0  0
M  END
> <NMREDATA_VERSION>
1.1

> <NMREDATA_LEVEL>
0

> <NMREDATA_SOLVENT>
CDCl3

> <NMREDATA_TEMPERATURE>
298

> <NMREDATA_FORMULA>
C29H22F3O3PRh

> <NMREDATA_SMILES>
[O]#C[Rh]1([O]=C(C=C(O1)C(F)(F)F)c1ccccc1)P(c1ccccc1)(c1ccccc1)c1ccccc1

> <NMREDATA_ASSIGNMENT>
Rh1, 325.00, 1

> <NMREDATA_1D_103Rh>
325.00, L=Rh1

$$$$
RhMan0925_0100.mol
  ChemDraw01122615552D

M  V30 COUNTS 36 40 0 0 0
  0.544306  0.848613  0.000000 Rh   0  0  0  0  0  0  0
 -0.351288  1.261114  0.000000 O    0  0  0  0  0  0  0
 -0.220181  0.265250  0.000000 O    0  0  0  0  0  0  0
 -1.045180  0.265250  0.000000 C    0  0  0  0  0  0  0
 -1.176289  1.261114  0.000000 C    0  0  0  0  0  0  0
 -1.759652  0.677750  0.000000 C    0  0  0  0  0  0  0
  1.218230  1.952706  0.000000 C    0  0  0  0  0  0  0
  1.630730  2.667178  0.000000 O    0  0  0  0  0  0  0
  1.608405 -1.166384  0.000000 P    0  0  0  0  0  0  0
  0.189650 -0.146751  0.000000 C    0  0  0  0  0  0  0
  1.788715 -0.245716  0.000000 C    0  0  0  0  0  0  0
  1.892156 -1.676538  0.000000 C    0  0  0  0  0  0  0
  1.690239 -2.476447  0.000000 C    0  0  0  0  0  0  0
  2.282022 -3.051266  0.000000 C    0  0  0  0  0  0  0
  3.075723 -2.826176  0.000000 C    0  0  0  0  0  0  0
  3.277638 -2.026267  0.000000 C    0  0  0  0  0  0  0
  2.685855 -1.451448  0.000000 C    0  0  0  0  0  0  0
  2.301946 -0.891641  0.000000 C    0  0  0  0  0  0  0
  3.117950 -0.770132  0.000000 C    0  0  0  0  0  0  0
  3.420721 -0.002697  0.000000 C    0  0  0  0  0  0  0
  2.907488  0.643226  0.000000 C    0  0  0  0  0  0  0
  2.091486  0.521717  0.000000 C    0  0  0  0  0  0  0
 -0.584480 -0.292795  0.000000 C    0  0  0  0  0  0  0
 -0.797567 -1.089801  0.000000 C    0  0  0  0  0  0  0
 -0.213884 -1.672843  0.000000 C    0  0  0  0  0  0  0
  0.582888 -1.458878  0.000000 C    0  0  0  0  0  0  0
  0.773335 -0.729792  0.000000 C    0  0  0  0  0  0  0
 -2.149970 -0.532452  0.000000 C    0  0  0  0  0  0  0
 -1.367028  2.241453  0.000000 C    0  0  0  0  0  0  0
 -2.147130  2.509906  0.000000 F    0  0  0  0  0  0  0
 -0.744491  2.782812  0.000000 F    0  0  0  0  0  0  0
 -1.524591  3.051266  0.000000 F    0  0  0  0  0  0  0
 -2.933838 -0.275207  0.000000 C    0  0  0  0  0  0  0
 -3.420721 -0.941216  0.000000 C    0  0  0  0  0  0  0
 -2.933838 -1.610079  0.000000 C    0  0  0  0  0  0  0
 -2.149970 -1.357448  0.000000 S    0  0  0  0  0  0  0
  1  2  1  0  0  0  0
  1  3  1  0  0  0  0
  3  4  2  0  0  0  0
  2  5  1  0  0  0  0
  4  6  1  0  0  0  0
  5  6  2  0  0  0  0
  1  7  1  0  0  0  0
  7  8  3  0  0  0  0
  1  9  1  0  0  0  0
  9 10  1  0  0  0  0
  9 11  1  0  0  0  0
  9 12  1  0  0  0  0
 12 13  2  0  0  0  0
 13 14  1  0  0  0  0
 14 15  2  0  0  0  0
 15 16  1  0  0  0  0
 16 17  2  0  0  0  0
 17 12  1  0  0  0  0
 11 18  2  0  0  0  0
 18 19  1  0  0  0  0
 19 20  2  0  0  0  0
 20 21  1  0  0  0  0
 21 22  2  0  0  0  0
 22 11  1  0  0  0  0
 10 23  2  0  0  0  0
 23 24  1  0  0  0  0
 24 25  2  0  0  0  0
 25 26  1  0  0  0  0
 26 27  2  0  0  0  0
 27 10  1  0  0  0  0
  4 28  1  0  0  0  0
  5 29  1  0  0  0  0
 30 29  1  0  0  0  0
 29 31  1  0  0  0  0
 29 32  1  0  0  0  0
 28 33  2  0  0  0  0
 33 34  1  0  0  0  0
 34 35  2  0  0  0  0
 35 36  1  0  0  0  0
 36 28  1  0  0  0  0
M  END
> <NMREDATA_VERSION>
1.1

> <NMREDATA_LEVEL>
0

> <NMREDATA_SOLVENT>
CDCl3

> <NMREDATA_TEMPERATURE>
298

> <NMREDATA_FORMULA>
C27H20F3O3PRhS

> <NMREDATA_SMILES>
[O]#C[Rh]1(OC(=CC(=[O]1)c1cccs1)C(F)(F)F)P(c1ccccc1)(c1ccccc1)c1ccccc1

> <NMREDATA_ASSIGNMENT>
Rh1, 332.00, 1

> <NMREDATA_1D_103Rh>
332.00, L=Rh1

$$$$
RhMan0925_0101.mol
  ChemDraw01122615562D

M  V30 COUNTS 36 40 0 0 0
  0.080177 -0.682956  0.000000 Rh   0  0  0  0  0  0  0
 -0.815417 -0.270456  0.000000 O    0  0  0  0  0  0  0
 -0.684310 -1.266319  0.000000 O    0  0  0  0  0  0  0
 -1.509309 -1.266319  0.000000 C    0  0  0  0  0  0  0
 -1.640417 -0.270456  0.000000 C    0  0  0  0  0  0  0
 -2.223779 -0.853819  0.000000 C    0  0  0  0  0  0  0
  0.301293 -2.250433  0.000000 C    0  0  0  0  0  0  0
  0.514820 -3.047322  0.000000 O    0  0  0  0  0  0  0
  2.072535  1.332039  0.000000 P    0  0  0  0  0  0  0
  0.653778  2.351672  0.000000 C    0  0  0  0  0  0  0
  2.252843  2.252706  0.000000 C    0  0  0  0  0  0  0
  2.356283  0.821886  0.000000 C    0  0  0  0  0  0  0
  2.154367  0.021976  0.000000 C    0  0  0  0  0  0  0
  2.746151 -0.552842  0.000000 C    0  0  0  0  0  0  0
  3.539851 -0.327753  0.000000 C    0  0  0  0  0  0  0
  3.741766  0.472157  0.000000 C    0  0  0  0  0  0  0
  3.149984  1.046976  0.000000 C    0  0  0  0  0  0  0
  2.766075  1.606783  0.000000 C    0  0  0  0  0  0  0
  3.582078  1.728291  0.000000 C    0  0  0  0  0  0  0
  3.884849  2.495725  0.000000 C    0  0  0  0  0  0  0
  3.371617  3.141649  0.000000 C    0  0  0  0  0  0  0
  2.555614  3.020140  0.000000 C    0  0  0  0  0  0  0
 -0.120352  2.205629  0.000000 C    0  0  0  0  0  0  0
 -0.333439  1.408622  0.000000 C    0  0  0  0  0  0  0
  0.250246  0.825580  0.000000 C    0  0  0  0  0  0  0
  1.047016  1.039545  0.000000 C    0  0  0  0  0  0  0
  1.237463  1.768630  0.000000 C    0  0  0  0  0  0  0
 -2.614098 -2.064022  0.000000 C    0  0  0  0  0  0  0
 -1.831157  0.709881  0.000000 C    0  0  0  0  0  0  0
 -2.611258  0.978335  0.000000 F    0  0  0  0  0  0  0
 -1.208619  1.251241  0.000000 F    0  0  0  0  0  0  0
 -1.988720  1.519696  0.000000 F    0  0  0  0  0  0  0
 -3.397965 -1.806776  0.000000 C    0  0  0  0  0  0  0
 -3.884849 -2.472786  0.000000 C    0  0  0  0  0  0  0
 -3.397965 -3.141649  0.000000 C    0  0  0  0  0  0  0
 -2.614098 -2.889018  0.000000 S    0  0  0  0  0  0  0
  1  2  1  0  0  0  0
  1  3  1  0  0  0  0
  3  4  2  0  0  0  0
  2  5  1  0  0  0  0
  4  6  1  0  0  0  0
  5  6  2  0  0  0  0
  1  7  1  0  0  0  0
  7  8  3  0  0  0  0
  1  9  1  0  0  0  0
  9 10  1  0  0  0  0
  9 11  1  0  0  0  0
  9 12  1  0  0  0  0
 12 13  2  0  0  0  0
 13 14  1  0  0  0  0
 14 15  2  0  0  0  0
 15 16  1  0  0  0  0
 16 17  2  0  0  0  0
 17 12  1  0  0  0  0
 11 18  2  0  0  0  0
 18 19  1  0  0  0  0
 19 20  2  0  0  0  0
 20 21  1  0  0  0  0
 21 22  2  0  0  0  0
 22 11  1  0  0  0  0
 10 23  2  0  0  0  0
 23 24  1  0  0  0  0
 24 25  2  0  0  0  0
 25 26  1  0  0  0  0
 26 27  2  0  0  0  0
 27 10  1  0  0  0  0
  4 28  1  0  0  0  0
  5 29  1  0  0  0  0
 30 29  1  0  0  0  0
 29 31  1  0  0  0  0
 29 32  1  0  0  0  0
 28 33  2  0  0  0  0
 33 34  1  0  0  0  0
 34 35  2  0  0  0  0
 35 36  1  0  0  0  0
 36 28  1  0  0  0  0
M  END
> <NMREDATA_VERSION>
1.1

> <NMREDATA_LEVEL>
0

> <NMREDATA_SOLVENT>
CDCl3

> <NMREDATA_TEMPERATURE>
298

> <NMREDATA_FORMULA>
C27H20F3O3PRhS

> <NMREDATA_SMILES>
[O]#C[Rh]1(OC(=CC(=[O]1)c1cccs1)C(F)(F)F)P(c1ccccc1)(c1ccccc1)c1ccccc1

> <NMREDATA_ASSIGNMENT>
Rh1, 321.00, 1

> <NMREDATA_1D_103Rh>
321.00, L=Rh1

$$$$
RhMan0925_0102.mol
  ChemDraw01122615562D

M  V30 COUNTS 29 32 0 0 0
 -0.091070  1.040658  0.000000 Rh   0  0  0  0  0  0  0
 -0.986664  1.453158  0.000000 N    0  0  0  0  0  0  0
 -0.855556  0.457295  0.000000 O    0  0  0  0  0  0  0
 -1.680556  0.457295  0.000000 C    0  0  0  0  0  0  0
 -1.811664  1.453158  0.000000 C    0  0  0  0  0  0  0
 -2.395026  0.869795  0.000000 C    0  0  0  0  0  0  0
  0.582855  2.144750  0.000000 C    0  0  0  0  0  0  0
  0.995355  2.859221  0.000000 O    0  0  0  0  0  0  0
  0.973029 -0.974338  0.000000 P    0  0  0  0  0  0  0
 -0.445726  0.045293  0.000000 C    0  0  0  0  0  0  0
  1.153339 -0.053672  0.000000 C    0  0  0  0  0  0  0
  1.256780 -1.484493  0.000000 C    0  0  0  0  0  0  0
  1.054864 -2.284401  0.000000 C    0  0  0  0  0  0  0
  1.646647 -2.859221  0.000000 C    0  0  0  0  0  0  0
  2.440348 -2.634131  0.000000 C    0  0  0  0  0  0  0
  2.642263 -1.834221  0.000000 C    0  0  0  0  0  0  0
  2.050480 -1.259403  0.000000 C    0  0  0  0  0  0  0
  1.666570 -0.699597  0.000000 C    0  0  0  0  0  0  0
  2.482573 -0.578088  0.000000 C    0  0  0  0  0  0  0
  2.785344  0.189346  0.000000 C    0  0  0  0  0  0  0
  2.272113  0.835271  0.000000 C    0  0  0  0  0  0  0
  1.456109  0.713761  0.000000 C    0  0  0  0  0  0  0
 -1.219857 -0.100750  0.000000 C    0  0  0  0  0  0  0
 -1.432943 -0.897755  0.000000 C    0  0  0  0  0  0  0
 -0.849259 -1.480797  0.000000 C    0  0  0  0  0  0  0
 -0.052488 -1.266834  0.000000 C    0  0  0  0  0  0  0
  0.137959 -0.537749  0.000000 C    0  0  0  0  0  0  0
 -2.785344 -0.340406  0.000000 C    0  0  0  0  0  0  0
 -2.002405  2.433496  0.000000 C    0  0  0  0  0  0  0
  1  2  1  0  0  0  0
  1  3  1  0  0  0  0
  3  4  2  0  0  0  0
  2  5  1  0  0  0  0
  4  6  1  0  0  0  0
  5  6  2  0  0  0  0
  1  7  1  0  0  0  0
  7  8  3  0  0  0  0
  1  9  1  0  0  0  0
  9 10  1  0  0  0  0
  9 11  1  0  0  0  0
  9 12  1  0  0  0  0
 12 13  2  0  0  0  0
 13 14  1  0  0  0  0
 14 15  2  0  0  0  0
 15 16  1  0  0  0  0
 16 17  2  0  0  0  0
 17 12  1  0  0  0  0
 11 18  2  0  0  0  0
 18 19  1  0  0  0  0
 19 20  2  0  0  0  0
 20 21  1  0  0  0  0
 21 22  2  0  0  0  0
 22 11  1  0  0  0  0
 10 23  2  0  0  0  0
 23 24  1  0  0  0  0
 24 25  2  0  0  0  0
 25 26  1  0  0  0  0
 26 27  2  0  0  0  0
 27 10  1  0  0  0  0
  4 28  1  0  0  0  0
  5 29  1  0  0  0  0
M  END
> <NMREDATA_VERSION>
1.1

> <NMREDATA_LEVEL>
0

> <NMREDATA_SOLVENT>
CDCl3

> <NMREDATA_TEMPERATURE>
298

> <NMREDATA_FORMULA>
C24H24NO2PRh

> <NMREDATA_SMILES>
[O]#C[Rh]1(NC(=CC(=[O]1)C)C)P(c1ccccc1)(c1ccccc1)c1ccccc1

> <NMREDATA_ASSIGNMENT>
Rh1, 103.00, 1

> <NMREDATA_1D_103Rh>
103.00, L=Rh1

$$$$
RhMan0925_0103.mol
  ChemDraw01122615562D

M  V30 COUNTS 29 32 0 0 0
 -0.226912 -0.707479  0.000000 Rh   0  0  0  0  0  0  0
 -1.122505 -0.294979  0.000000 N    0  0  0  0  0  0  0
 -0.991399 -1.290844  0.000000 O    0  0  0  0  0  0  0
 -1.816399 -1.290844  0.000000 C    0  0  0  0  0  0  0
 -1.947505 -0.294979  0.000000 C    0  0  0  0  0  0  0
 -2.530869 -0.878344  0.000000 C    0  0  0  0  0  0  0
  0.197967 -1.980630  0.000000 C    0  0  0  0  0  0  0
  0.411495 -2.777519  0.000000 O    0  0  0  0  0  0  0
  1.108873  0.967910  0.000000 P    0  0  0  0  0  0  0
 -0.309883  1.987542  0.000000 C    0  0  0  0  0  0  0
  1.289182  1.888577  0.000000 C    0  0  0  0  0  0  0
  1.392622  0.457757  0.000000 C    0  0  0  0  0  0  0
  1.190707 -0.342153  0.000000 C    0  0  0  0  0  0  0
  1.782490 -0.916971  0.000000 C    0  0  0  0  0  0  0
  2.576190 -0.691882  0.000000 C    0  0  0  0  0  0  0
  2.778105  0.108028  0.000000 C    0  0  0  0  0  0  0
  2.186322  0.682846  0.000000 C    0  0  0  0  0  0  0
  1.802414  1.242653  0.000000 C    0  0  0  0  0  0  0
  2.618417  1.364162  0.000000 C    0  0  0  0  0  0  0
  2.921187  2.131596  0.000000 C    0  0  0  0  0  0  0
  2.407956  2.777519  0.000000 C    0  0  0  0  0  0  0
  1.591953  2.656010  0.000000 C    0  0  0  0  0  0  0
 -1.084014  1.841499  0.000000 C    0  0  0  0  0  0  0
 -1.297101  1.044493  0.000000 C    0  0  0  0  0  0  0
 -0.713417  0.461451  0.000000 C    0  0  0  0  0  0  0
  0.083355  0.675416  0.000000 C    0  0  0  0  0  0  0
  0.273801  1.404501  0.000000 C    0  0  0  0  0  0  0
 -2.921187 -2.088545  0.000000 C    0  0  0  0  0  0  0
 -2.138247  0.685358  0.000000 C    0  0  0  0  0  0  0
  1  2  1  0  0  0  0
  1  3  1  0  0  0  0
  3  4  2  0  0  0  0
  2  5  1  0  0  0  0
  4  6  1  0  0  0  0
  5  6  2  0  0  0  0
  1  7  1  0  0  0  0
  7  8  3  0  0  0  0
  1  9  1  0  0  0  0
  9 10  1  0  0  0  0
  9 11  1  0  0  0  0
  9 12  1  0  0  0  0
 12 13  2  0  0  0  0
 13 14  1  0  0  0  0
 14 15  2  0  0  0  0
 15 16  1  0  0  0  0
 16 17  2  0  0  0  0
 17 12  1  0  0  0  0
 11 18  2  0  0  0  0
 18 19  1  0  0  0  0
 19 20  2  0  0  0  0
 20 21  1  0  0  0  0
 21 22  2  0  0  0  0
 22 11  1  0  0  0  0
 10 23  2  0  0  0  0
 23 24  1  0  0  0  0
 24 25  2  0  0  0  0
 25 26  1  0  0  0  0
 26 27  2  0  0  0  0
 27 10  1  0  0  0  0
  4 28  1  0  0  0  0
  5 29  1  0  0  0  0
M  END
> <NMREDATA_VERSION>
1.1

> <NMREDATA_LEVEL>
0

> <NMREDATA_SOLVENT>
CDCl3

> <NMREDATA_TEMPERATURE>
298

> <NMREDATA_FORMULA>
C24H24NO2PRh

> <NMREDATA_SMILES>
[O]#C[Rh]1(NC(=CC(=[O]1)C)C)P(c1ccccc1)(c1ccccc1)c1ccccc1

> <NMREDATA_ASSIGNMENT>
Rh1, 135.00, 1

> <NMREDATA_1D_103Rh>
135.00, L=Rh1

$$$$
RhMan0925_0104.mol
  ChemDraw01122615572D

M  V30 COUNTS 35 39 0 0 0
 -0.713681 -0.481075  0.000000 Rh   0  0  0  0  0  0  0
 -1.609274 -0.068576  0.000000 N    0  0  0  0  0  0  0
 -1.478168 -1.064439  0.000000 O    0  0  0  0  0  0  0
 -2.303168 -1.064439  0.000000 C    0  0  0  0  0  0  0
 -2.434274 -0.068576  0.000000 C    0  0  0  0  0  0  0
 -3.017639 -0.651939  0.000000 C    0  0  0  0  0  0  0
 -0.288801 -1.754227  0.000000 C    0  0  0  0  0  0  0
 -0.075275 -2.551115  0.000000 O    0  0  0  0  0  0  0
  1.595640  0.741506  0.000000 P    0  0  0  0  0  0  0
  0.176886  1.761138  0.000000 C    0  0  0  0  0  0  0
  1.775951  1.662172  0.000000 C    0  0  0  0  0  0  0
  1.879390  0.231352  0.000000 C    0  0  0  0  0  0  0
  1.677474 -0.568556  0.000000 C    0  0  0  0  0  0  0
  2.269258 -1.143376  0.000000 C    0  0  0  0  0  0  0
  3.062958 -0.918285  0.000000 C    0  0  0  0  0  0  0
  3.264875 -0.118377  0.000000 C    0  0  0  0  0  0  0
  2.673090  0.456443  0.000000 C    0  0  0  0  0  0  0
  2.289183  1.016248  0.000000 C    0  0  0  0  0  0  0
  3.105185  1.137758  0.000000 C    0  0  0  0  0  0  0
  3.407956  1.905191  0.000000 C    0  0  0  0  0  0  0
  2.894724  2.551115  0.000000 C    0  0  0  0  0  0  0
  2.078722  2.429605  0.000000 C    0  0  0  0  0  0  0
 -0.597245  1.615095  0.000000 C    0  0  0  0  0  0  0
 -0.810332  0.818089  0.000000 C    0  0  0  0  0  0  0
 -0.226648  0.235047  0.000000 C    0  0  0  0  0  0  0
  0.570124  0.449011  0.000000 C    0  0  0  0  0  0  0
  0.760570  1.178096  0.000000 C    0  0  0  0  0  0  0
 -3.407956 -1.862142  0.000000 C    0  0  0  0  0  0  0
 -2.625016  0.911762  0.000000 C    0  0  0  0  0  0  0
 -1.822801  0.728313  0.000000 C    0  0  0  0  0  0  0
 -1.239437  1.311676  0.000000 C    0  0  0  0  0  0  0
 -1.452965  2.108565  0.000000 C    0  0  0  0  0  0  0
 -2.249853  2.322090  0.000000 C    0  0  0  0  0  0  0
 -2.833216  1.738727  0.000000 C    0  0  0  0  0  0  0
 -2.749989  0.693624  0.000000 C    0  0  0  0  0  0  0
  1  2  1  0  0  0  0
  1  3  1  0  0  0  0
  3  4  2  0  0  0  0
  2  5  1  0  0  0  0
  4  6  1  0  0  0  0
  5  6  2  0  0  0  0
  1  7  1  0  0  0  0
  7  8  3  0  0  0  0
  1  9  1  0  0  0  0
  9 10  1  0  0  0  0
  9 11  1  0  0  0  0
  9 12  1  0  0  0  0
 12 13  2  0  0  0  0
 13 14  1  0  0  0  0
 14 15  2  0  0  0  0
 15 16  1  0  0  0  0
 16 17  2  0  0  0  0
 17 12  1  0  0  0  0
 11 18  2  0  0  0  0
 18 19  1  0  0  0  0
 19 20  2  0  0  0  0
 20 21  1  0  0  0  0
 21 22  2  0  0  0  0
 22 11  1  0  0  0  0
 10 23  2  0  0  0  0
 23 24  1  0  0  0  0
 24 25  2  0  0  0  0
 25 26  1  0  0  0  0
 26 27  2  0  0  0  0
 27 10  1  0  0  0  0
  4 28  1  0  0  0  0
  2 30  1  0  0  0  0
 30 31  2  0  0  0  0
 31 32  1  0  0  0  0
 32 33  2  0  0  0  0
 33 34  1  0  0  0  0
 34 29  2  0  0  0  0
 29 30  1  0  0  0  0
  5 35  1  0  0  0  0
M  END
> <NMREDATA_VERSION>
1.1

> <NMREDATA_LEVEL>
0

> <NMREDATA_SOLVENT>
CDCl3

> <NMREDATA_TEMPERATURE>
298

> <NMREDATA_FORMULA>
C30H28NO2PRh

> <NMREDATA_SMILES>
[O]#C[Rh]1([O]=C(C)C=C(N1c1ccccc1)C)P(c1ccccc1)(c1ccccc1)c1ccccc1

> <NMREDATA_ASSIGNMENT>
Rh1, 190.00, 1

> <NMREDATA_1D_103Rh>
190.00, L=Rh1

$$$$
RhMan0925_0105.mol
  ChemDraw01122615572D

M  V30 COUNTS 16 20 0 0 0
  0.228732  0.102776  0.000000 Rh   0  0  0  0  0  0  0
 -0.666862  0.515276  0.000000 O    0  0  0  0  0  0  0
 -0.535755 -0.480586  0.000000 O    0  0  0  0  0  0  0
 -1.360754 -0.480586  0.000000 C    0  0  0  0  0  0  0
 -1.491862  0.515276  0.000000 C    0  0  0  0  0  0  0
 -2.075225 -0.068086  0.000000 C    0  0  0  0  0  0  0
 -1.807575  1.277476  0.000000 C    0  0  0  0  0  0  0
 -1.574280 -1.277476  0.000000 C    0  0  0  0  0  0  0
  1.134348 -0.327393  0.000000 C    0  0  0  0  0  0  0
  1.347875 -1.124281  0.000000 C    0  0  0  0  0  0  0
  2.062345 -0.711781  0.000000 C    0  0  0  0  0  0  0
  2.075225  0.288871  0.000000 C    0  0  0  0  0  0  0
  2.075225  1.113871  0.000000 C    0  0  0  0  0  0  0
  2.062345  0.113219  0.000000 C    0  0  0  0  0  0  0
  1.265456  0.326745  0.000000 C    0  0  0  0  0  0  0
  1.265456  1.151745  0.000000 C    0  0  0  0  0  0  0
  1  2  1  0  0  0  0
  1  3  1  0  0  0  0
  3  4  2  0  0  0  0
  2  5  1  0  0  0  0
  4  6  1  0  0  0  0
  5  6  2  0  0  0  0
  5  7  1  0  0  0  0
  4  8  1  0  0  0  0
  9 10  1  0  0  0  0
 10 11  1  0  0  0  0
  9 12  1  0  0  0  0
 12 13  1  0  0  0  0
 11 14  1  0  0  0  0
 14 15  1  0  0  0  0
 15 16  1  0  0  0  0
 13 16  1  0  0  0  0
  1 16  1  0  0  0  0
  1 15  1  0  0  0  0
  1  9  1  0  0  0  0
  1 10  1  0  0  0  0
M  END
> <NMREDATA_VERSION>
1.1

> <NMREDATA_LEVEL>
0

> <NMREDATA_SOLVENT>
CDCl3

> <NMREDATA_TEMPERATURE>
298

> <NMREDATA_FORMULA>
C13H19O2Rh

> <NMREDATA_SMILES>
CC1=CC(=[O][Rh]234(O1)C1C4CCC2C3CC1)C

> <NMREDATA_ASSIGNMENT>
Rh1, 1286.00, 1

> <NMREDATA_1D_103Rh>
1286.00, L=Rh1

$$$$
RhMan0925_0106.mol
  ChemDraw01122615572D

M  V30 COUNTS 19 23 0 0 0
  0.376703  0.394458  0.000000 Rh   0  0  0  0  0  0  0
 -0.518890  0.806958  0.000000 O    0  0  0  0  0  0  0
 -0.387782 -0.188906  0.000000 O    0  0  0  0  0  0  0
 -1.212782 -0.188906  0.000000 C    0  0  0  0  0  0  0
 -1.343890  0.806958  0.000000 C    0  0  0  0  0  0  0
 -1.927253  0.223594  0.000000 C    0  0  0  0  0  0  0
 -1.659604  1.569158  0.000000 C    0  0  0  0  0  0  0
 -1.426308 -0.985794  0.000000 C    0  0  0  0  0  0  0
  1.282320 -0.035710  0.000000 C    0  0  0  0  0  0  0
  1.495846 -0.832598  0.000000 C    0  0  0  0  0  0  0
  2.210317 -0.420098  0.000000 C    0  0  0  0  0  0  0
  2.223196  0.580553  0.000000 C    0  0  0  0  0  0  0
  2.223196  1.405553  0.000000 C    0  0  0  0  0  0  0
  2.210317  0.404902  0.000000 C    0  0  0  0  0  0  0
  1.413429  0.618427  0.000000 C    0  0  0  0  0  0  0
  1.413429  1.443427  0.000000 C    0  0  0  0  0  0  0
 -0.842946 -1.569158  0.000000 F    0  0  0  0  0  0  0
 -2.223196 -1.199320  0.000000 F    0  0  0  0  0  0  0
 -0.629419 -0.772269  0.000000 F    0  0  0  0  0  0  0
  1  2  1  0  0  0  0
  1  3  1  0  0  0  0
  3  4  2  0  0  0  0
  2  5  1  0  0  0  0
  4  6  1  0  0  0  0
  5  6  2  0  0  0  0
  5  7  1  0  0  0  0
  4  8  1  0  0  0  0
  9 10  1  0  0  0  0
 10 11  1  0  0  0  0
  9 12  1  0  0  0  0
 12 13  1  0  0  0  0
 11 14  1  0  0  0  0
 14 15  1  0  0  0  0
 15 16  1  0  0  0  0
 13 16  1  0  0  0  0
  1 16  1  0  0  0  0
  1 15  1  0  0  0  0
  1  9  1  0  0  0  0
  1 10  1  0  0  0  0
  8 17  1  0  0  0  0
  8 18  1  0  0  0  0
  8 19  1  0  0  0  0
M  END
> <NMREDATA_VERSION>
1.1

> <NMREDATA_LEVEL>
0

> <NMREDATA_SOLVENT>
CDCl3

> <NMREDATA_TEMPERATURE>
298

> <NMREDATA_FORMULA>
C13H16F3O2Rh

> <NMREDATA_SMILES>
CC1=CC(=[O][Rh]234(O1)C1C4CCC2C3CC1)C(F)(F)F

> <NMREDATA_ASSIGNMENT>
Rh1, 1327.00, 1

> <NMREDATA_1D_103Rh>
1327.00, L=Rh1

$$$$
RhMan0925_0107.mol
  ChemDraw01122615572D

M  V30 COUNTS 26 40 0 0 0
  2.103101  1.110082  0.000000 Rh   0  0  0  0  0  0  0
  1.207507  1.522582  0.000000 O    0  0  0  0  0  0  0
  1.338614  0.526719  0.000000 O    0  0  0  0  0  0  0
  0.513615  0.526719  0.000000 C    0  0  0  0  0  0  0
  0.382507  1.522582  0.000000 C    0  0  0  0  0  0  0
 -0.200856  0.939219  0.000000 C    0  0  0  0  0  0  0
  0.066793  2.284782  0.000000 C    0  0  0  0  0  0  0
  3.008719  0.679915  0.000000 C    0  0  0  0  0  0  0
  3.222243 -0.116973  0.000000 C    0  0  0  0  0  0  0
  3.936714  0.295527  0.000000 C    0  0  0  0  0  0  0
  3.949592  1.296178  0.000000 C    0  0  0  0  0  0  0
  3.949592  2.121178  0.000000 C    0  0  0  0  0  0  0
  3.936714  1.120527  0.000000 C    0  0  0  0  0  0  0
  3.139825  1.334051  0.000000 C    0  0  0  0  0  0  0
  3.139825  2.159051  0.000000 C    0  0  0  0  0  0  0
 -1.996667 -0.799140  0.000000 Fe   0  0  0  0  0  0  0
 -3.949592 -1.204824  0.000000 C    0  0  0  0  0  0  0
 -3.949592 -2.029793  0.000000 C    0  0  0  0  0  0  0
 -3.165022 -2.284782  0.000000 C    0  0  0  0  0  0  0
 -2.680041 -1.617308  0.000000 C    0  0  0  0  0  0  0
 -3.165022 -0.949934  0.000000 C    0  0  0  0  0  0  0
 -1.121501 -0.450954  0.000000 C    0  0  0  0  0  0  0
 -1.121501 -1.275922  0.000000 C    0  0  0  0  0  0  0
 -0.336832 -1.530812  0.000000 C    0  0  0  0  0  0  0
  0.147949 -0.863438  0.000000 C    0  0  0  0  0  0  0
 -0.336832 -0.195963  0.000000 C    0  0  0  0  0  0  0
  1  2  1  0  0  0  0
  1  3  1  0  0  0  0
  3  4  2  0  0  0  0
  2  5  1  0  0  0  0
  4  6  1  0  0  0  0
  5  6  2  0  0  0  0
  5  7  1  0  0  0  0
  8  9  1  0  0  0  0
  9 10  1  0  0  0  0
  8 11  1  0  0  0  0
 11 12  1  0  0  0  0
 10 13  1  0  0  0  0
 13 14  1  0  0  0  0
 14 15  1  0  0  0  0
 12 15  1  0  0  0  0
  1 15  1  0  0  0  0
  1 14  1  0  0  0  0
  1  8  1  0  0  0  0
  1  9  1  0  0  0  0
 17 18  1  0  0  0  0
 18 19  1  0  0  0  0
 19 20  1  0  0  0  0
 20 21  1  0  0  0  0
 21 17  1  0  0  0  0
 22 23  1  0  0  0  0
 23 24  1  0  0  0  0
 24 25  1  0  0  0  0
 25 26  1  0  0  0  0
 26 22  1  0  0  0  0
 22 16  1  0  0  0  0
 23 16  1  0  0  0  0
 20 16  1  0  0  0  0
 21 16  1  0  0  0  0
 24 16  1  0  0  0  0
 25 16  1  0  0  0  0
 26 16  1  0  0  0  0
 19 16  1  0  0  0  0
 18 16  1  0  0  0  0
 17 16  1  0  0  0  0
 26  4  1  0  0  0  0
M  END
> <NMREDATA_VERSION>
1.1

> <NMREDATA_LEVEL>
0

> <NMREDATA_SOLVENT>
CDCl3

> <NMREDATA_TEMPERATURE>
298

> <NMREDATA_FORMULA>
C22H25FeO2Rh

> <NMREDATA_SMILES>
CC1=CC(=[O][Rh]234(O1)C1C4CCC2C3CC1)C12C3[Fe]4567892(C1C5C34)C1C8C7C6C91

> <NMREDATA_ASSIGNMENT>
Rh1, 1291.00, 1

> <NMREDATA_1D_103Rh>
1291.00, L=Rh1

$$$$
RhMan0925_0108.mol
  ChemDraw01122615582D

M  V30 COUNTS 36 60 0 0 0
  2.113843  0.391281  0.000000 Rh   0  0  0  0  0  0  0
  1.218249  0.803780  0.000000 O    0  0  0  0  0  0  0
  1.349356 -0.192082  0.000000 O    0  0  0  0  0  0  0
  0.524357 -0.192082  0.000000 C    0  0  0  0  0  0  0
  0.393249  0.803780  0.000000 C    0  0  0  0  0  0  0
 -0.190114  0.220418  0.000000 C    0  0  0  0  0  0  0
  3.019461 -0.038887  0.000000 C    0  0  0  0  0  0  0
  3.232985 -0.835775  0.000000 C    0  0  0  0  0  0  0
  3.947457 -0.423275  0.000000 C    0  0  0  0  0  0  0
  3.960334  0.577377  0.000000 C    0  0  0  0  0  0  0
  3.960334  1.402376  0.000000 C    0  0  0  0  0  0  0
  3.947457  0.401725  0.000000 C    0  0  0  0  0  0  0
  3.150567  0.615249  0.000000 C    0  0  0  0  0  0  0
  3.150567  1.440249  0.000000 C    0  0  0  0  0  0  0
 -2.007410 -1.460136  0.000000 Fe   0  0  0  0  0  0  0
 -3.960334 -1.865819  0.000000 C    0  0  0  0  0  0  0
 -3.960334 -2.690788  0.000000 C    0  0  0  0  0  0  0
 -3.175765 -2.945778  0.000000 C    0  0  0  0  0  0  0
 -2.690784 -2.278304  0.000000 C    0  0  0  0  0  0  0
 -3.175765 -1.610929  0.000000 C    0  0  0  0  0  0  0
 -1.132243 -1.111949  0.000000 C    0  0  0  0  0  0  0
 -1.132243 -1.936917  0.000000 C    0  0  0  0  0  0  0
 -0.347574 -2.191808  0.000000 C    0  0  0  0  0  0  0
  0.137207 -1.524433  0.000000 C    0  0  0  0  0  0  0
 -0.347574 -0.856958  0.000000 C    0  0  0  0  0  0  0
 -1.384362  2.342600  0.000000 Fe   0  0  0  0  0  0  0
 -3.337287  1.936917  0.000000 C    0  0  0  0  0  0  0
 -3.337287  1.111948  0.000000 C    0  0  0  0  0  0  0
 -2.552717  0.856958  0.000000 C    0  0  0  0  0  0  0
 -2.067736  1.524432  0.000000 C    0  0  0  0  0  0  0
 -2.552717  2.191807  0.000000 C    0  0  0  0  0  0  0
 -0.509196  2.690787  0.000000 C    0  0  0  0  0  0  0
 -0.509196  1.865819  0.000000 C    0  0  0  0  0  0  0
  0.275473  1.610928  0.000000 C    0  0  0  0  0  0  0
  0.760254  2.278303  0.000000 C    0  0  0  0  0  0  0
  0.275473  2.945778  0.000000 C    0  0  0  0  0  0  0
  1  2  1  0  0  0  0
  1  3  1  0  0  0  0
  3  4  2  0  0  0  0
  2  5  1  0  0  0  0
  4  6  1  0  0  0  0
  5  6  2  0  0  0  0
  7  8  1  0  0  0  0
  8  9  1  0  0  0  0
  7 10  1  0  0  0  0
 10 11  1  0  0  0  0
  9 12  1  0  0  0  0
 12 13  1  0  0  0  0
 13 14  1  0  0  0  0
 11 14  1  0  0  0  0
  1 14  1  0  0  0  0
  1 13  1  0  0  0  0
  1  7  1  0  0  0  0
  1  8  1  0  0  0  0
 16 17  1  0  0  0  0
 17 18  1  0  0  0  0
 18 19  1  0  0  0  0
 19 20  1  0  0  0  0
 20 16  1  0  0  0  0
 21 22  1  0  0  0  0
 22 23  1  0  0  0  0
 23 24  1  0  0  0  0
 24 25  1  0  0  0  0
 25 21  1  0  0  0  0
 21 15  1  0  0  0  0
 22 15  1  0  0  0  0
 19 15  1  0  0  0  0
 20 15  1  0  0  0  0
 23 15  1  0  0  0  0
 24 15  1  0  0  0  0
 25 15  1  0  0  0  0
 18 15  1  0  0  0  0
 17 15  1  0  0  0  0
 16 15  1  0  0  0  0
 27 28  1  0  0  0  0
 28 29  1  0  0  0  0
 29 30  1  0  0  0  0
 30 31  1  0  0  0  0
 31 27  1  0  0  0  0
 32 33  1  0  0  0  0
 33 34  1  0  0  0  0
 34 35  1  0  0  0  0
 35 36  1  0  0  0  0
 36 32  1  0  0  0  0
 32 26  1  0  0  0  0
 33 26  1  0  0  0  0
 30 26  1  0  0  0  0
 31 26  1  0  0  0  0
 34 26  1  0  0  0  0
 35 26  1  0  0  0  0
 36 26  1  0  0  0  0
 29 26  1  0  0  0  0
 28 26  1  0  0  0  0
 27 26  1  0  0  0  0
  5 34  1  0  0  0  0
  4 25  1  0  0  0  0
M  END
> <NMREDATA_VERSION>
1.1

> <NMREDATA_LEVEL>
0

> <NMREDATA_SOLVENT>
CDCl3

> <NMREDATA_TEMPERATURE>
298

> <NMREDATA_FORMULA>
C31H31Fe2O2Rh

> <NMREDATA_SMILES>
C1=C(O[Rh]234([O]=C1C15C6[Fe]789%10%11%125(C1C8C67)C1C%11C%10C9C%121)C1C4CCC2C3CC1)C12C3[Fe]4567892(C1C5C34)C1C8C7C6C91

> <NMREDATA_ASSIGNMENT>
Rh1, 1296.00, 1

> <NMREDATA_1D_103Rh>
1296.00, L=Rh1

$$$$
RhMan0925_0109.mol
  ChemDraw01122615592D

M  V30 COUNTS 31 46 0 0 0
  2.092358  0.253423  0.000000 Rh   0  0  0  0  0  0  0
  1.196765  0.665923  0.000000 O    0  0  0  0  0  0  0
  1.327871 -0.329940  0.000000 O    0  0  0  0  0  0  0
  0.502872 -0.329940  0.000000 C    0  0  0  0  0  0  0
  0.371765  0.665923  0.000000 C    0  0  0  0  0  0  0
 -0.211598  0.082559  0.000000 C    0  0  0  0  0  0  0
  2.997976 -0.176746  0.000000 C    0  0  0  0  0  0  0
  3.211501 -0.973633  0.000000 C    0  0  0  0  0  0  0
  3.925972 -0.561133  0.000000 C    0  0  0  0  0  0  0
  3.938850  0.439519  0.000000 C    0  0  0  0  0  0  0
  3.938850  1.264519  0.000000 C    0  0  0  0  0  0  0
  3.925972  0.263866  0.000000 C    0  0  0  0  0  0  0
  3.129083  0.477391  0.000000 C    0  0  0  0  0  0  0
  3.129083  1.302391  0.000000 C    0  0  0  0  0  0  0
  0.258420  1.476005  0.000000 C    0  0  0  0  0  0  0
  0.908839  1.983528  0.000000 C    0  0  0  0  0  0  0
  0.794520  2.800569  0.000000 C    0  0  0  0  0  0  0
  0.029781  3.110086  0.000000 C    0  0  0  0  0  0  0
 -0.620636  2.602563  0.000000 C    0  0  0  0  0  0  0
 -0.506318  1.785522  0.000000 C    0  0  0  0  0  0  0
 -1.985925 -1.624444  0.000000 Fe   0  0  0  0  0  0  0
 -3.938850 -2.030128  0.000000 C    0  0  0  0  0  0  0
 -3.938850 -2.855096  0.000000 C    0  0  0  0  0  0  0
 -3.154280 -3.110086  0.000000 C    0  0  0  0  0  0  0
 -2.669299 -2.442612  0.000000 C    0  0  0  0  0  0  0
 -3.154280 -1.775238  0.000000 C    0  0  0  0  0  0  0
 -1.110759 -1.276257  0.000000 C    0  0  0  0  0  0  0
 -1.110759 -2.101226  0.000000 C    0  0  0  0  0  0  0
 -0.326090 -2.356116  0.000000 C    0  0  0  0  0  0  0
  0.158691 -1.688742  0.000000 C    0  0  0  0  0  0  0
 -0.326090 -1.021267  0.000000 C    0  0  0  0  0  0  0
  1  2  1  0  0  0  0
  1  3  1  0  0  0  0
  3  4  2  0  0  0  0
  2  5  1  0  0  0  0
  4  6  1  0  0  0  0
  5  6  2  0  0  0  0
  7  8  1  0  0  0  0
  8  9  1  0  0  0  0
  7 10  1  0  0  0  0
 10 11  1  0  0  0  0
  9 12  1  0  0  0  0
 12 13  1  0  0  0  0
 13 14  1  0  0  0  0
 11 14  1  0  0  0  0
  1 14  1  0  0  0  0
  1 13  1  0  0  0  0
  1  7  1  0  0  0  0
  1  8  1  0  0  0  0
  5 15  1  0  0  0  0
 15 16  2  0  0  0  0
 16 17  1  0  0  0  0
 17 18  2  0  0  0  0
 18 19  1  0  0  0  0
 19 20  2  0  0  0  0
 20 15  1  0  0  0  0
 22 23  1  0  0  0  0
 23 24  1  0  0  0  0
 24 25  1  0  0  0  0
 25 26  1  0  0  0  0
 26 22  1  0  0  0  0
 27 28  1  0  0  0  0
 28 29  1  0  0  0  0
 29 30  1  0  0  0  0
 30 31  1  0  0  0  0
 31 27  1  0  0  0  0
 27 21  1  0  0  0  0
 28 21  1  0  0  0  0
 25 21  1  0  0  0  0
 26 21  1  0  0  0  0
 29 21  1  0  0  0  0
 30 21  1  0  0  0  0
 31 21  1  0  0  0  0
 24 21  1  0  0  0  0
 23 21  1  0  0  0  0
 22 21  1  0  0  0  0
 31  4  1  0  0  0  0
M  END
> <NMREDATA_VERSION>
1.1

> <NMREDATA_LEVEL>
0

> <NMREDATA_SOLVENT>
CDCl3

> <NMREDATA_TEMPERATURE>
298

> <NMREDATA_FORMULA>
C27H27FeO2Rh

> <NMREDATA_SMILES>
c1ccc(cc1)C1=CC(=[O][Rh]234(O1)C1C4CCC2C3CC1)C12C3[Fe]4567892(C1C5C34)C1C8C7C6C91

> <NMREDATA_ASSIGNMENT>
Rh1, 1300.00, 1

> <NMREDATA_1D_103Rh>
1300.00, L=Rh1

$$$$
RhMan0925_0110.mol
  ChemDraw01122615592D

M  V30 COUNTS 29 43 0 0 0
  2.113843  0.667972  0.000000 Rh   0  0  0  0  0  0  0
  1.218249  1.080471  0.000000 O    0  0  0  0  0  0  0
  1.349356  0.084609  0.000000 O    0  0  0  0  0  0  0
  0.524357  0.084609  0.000000 C    0  0  0  0  0  0  0
  0.393249  1.080471  0.000000 C    0  0  0  0  0  0  0
 -0.190114  0.497109  0.000000 C    0  0  0  0  0  0  0
  3.019461  0.237805  0.000000 C    0  0  0  0  0  0  0
  3.232985 -0.559084  0.000000 C    0  0  0  0  0  0  0
  3.947457 -0.146584  0.000000 C    0  0  0  0  0  0  0
  3.960334  0.854068  0.000000 C    0  0  0  0  0  0  0
  3.960334  1.679067  0.000000 C    0  0  0  0  0  0  0
  3.947457  0.678416  0.000000 C    0  0  0  0  0  0  0
  3.150567  0.891941  0.000000 C    0  0  0  0  0  0  0
  3.150567  1.716941  0.000000 C    0  0  0  0  0  0  0
 -0.484834  2.200071  0.000000 F    0  0  0  0  0  0  0
  0.930324  2.398078  0.000000 F    0  0  0  0  0  0  0
  0.279905  1.890554  0.000000 C    0  0  0  0  0  0  0
  0.165585  2.707595  0.000000 F    0  0  0  0  0  0  0
 -2.007410 -1.221952  0.000000 Fe   0  0  0  0  0  0  0
 -3.960334 -1.627636  0.000000 C    0  0  0  0  0  0  0
 -3.960334 -2.452605  0.000000 C    0  0  0  0  0  0  0
 -3.175765 -2.707595  0.000000 C    0  0  0  0  0  0  0
 -2.690784 -2.040120  0.000000 C    0  0  0  0  0  0  0
 -3.175765 -1.372746  0.000000 C    0  0  0  0  0  0  0
 -1.132243 -0.873766  0.000000 C    0  0  0  0  0  0  0
 -1.132243 -1.698734  0.000000 C    0  0  0  0  0  0  0
 -0.347574 -1.953624  0.000000 C    0  0  0  0  0  0  0
  0.137207 -1.286250  0.000000 C    0  0  0  0  0  0  0
 -0.347574 -0.618775  0.000000 C    0  0  0  0  0  0  0
  1  2  1  0  0  0  0
  1  3  1  0  0  0  0
  3  4  2  0  0  0  0
  2  5  1  0  0  0  0
  4  6  1  0  0  0  0
  5  6  2  0  0  0  0
  7  8  1  0  0  0  0
  8  9  1  0  0  0  0
  7 10  1  0  0  0  0
 10 11  1  0  0  0  0
  9 12  1  0  0  0  0
 12 13  1  0  0  0  0
 13 14  1  0  0  0  0
 11 14  1  0  0  0  0
  1 14  1  0  0  0  0
  1 13  1  0  0  0  0
  1  7  1  0  0  0  0
  1  8  1  0  0  0  0
  5 17  1  0  0  0  0
 15 17  1  0  0  0  0
 17 16  1  0  0  0  0
 17 18  1  0  0  0  0
 20 21  1  0  0  0  0
 21 22  1  0  0  0  0
 22 23  1  0  0  0  0
 23 24  1  0  0  0  0
 24 20  1  0  0  0  0
 25 26  1  0  0  0  0
 26 27  1  0  0  0  0
 27 28  1  0  0  0  0
 28 29  1  0  0  0  0
 29 25  1  0  0  0  0
 25 19  1  0  0  0  0
 26 19  1  0  0  0  0
 23 19  1  0  0  0  0
 24 19  1  0  0  0  0
 27 19  1  0  0  0  0
 28 19  1  0  0  0  0
 29 19  1  0  0  0  0
 22 19  1  0  0  0  0
 21 19  1  0  0  0  0
 20 19  1  0  0  0  0
  4 29  1  0  0  0  0
M  END
> <NMREDATA_VERSION>
1.1

> <NMREDATA_LEVEL>
0

> <NMREDATA_SOLVENT>
CDCl3

> <NMREDATA_TEMPERATURE>
298

> <NMREDATA_FORMULA>
C22H22F3FeO2Rh

> <NMREDATA_SMILES>
FC(C1=CC(=[O][Rh]234(O1)C1C4CCC2C3CC1)C12C3[Fe]4567892(C1C5C34)C1C8C7C6C91)(F)F

> <NMREDATA_ASSIGNMENT>
Rh1, 1327.00, 1

> <NMREDATA_1D_103Rh>
1327.00, L=Rh1

$$$$
RhMan0925_0111.mol
  ChemDraw01122615592D

M  V30 COUNTS 50 61 0 0 0
 -0.001077 -1.684423  0.000000 Rh   0  0  0  0  0  0  0
 -1.155738 -0.507121  0.000000 C    0  0  0  0  0  0  0
 -1.155738 -1.332121  0.000000 C    0  0  0  0  0  0  0
 -1.870209 -1.744621  0.000000 C    0  0  0  0  0  0  0
 -1.457709 -2.459092  0.000000 C    0  0  0  0  0  0  0
 -1.244184 -1.662203  0.000000 C    0  0  0  0  0  0  0
 -1.827546 -1.078840  0.000000 C    0  0  0  0  0  0  0
 -2.624436 -1.292366  0.000000 C    0  0  0  0  0  0  0
 -0.018744  1.022404  0.000000 P    0  0  0  0  0  0  0
  0.411423 -2.398894  0.000000 C    0  0  0  0  0  0  0
  1.236423 -2.398894  0.000000 C    0  0  0  0  0  0  0
 -0.001077 -3.113364  0.000000 C    0  0  0  0  0  0  0
 -0.826077 -3.113364  0.000000 C    0  0  0  0  0  0  0
 -1.238577 -3.827836  0.000000 C    0  0  0  0  0  0  0
 -0.826077 -4.542307  0.000000 C    0  0  0  0  0  0  0
 -0.001077 -4.542307  0.000000 C    0  0  0  0  0  0  0
  0.411423 -3.827836  0.000000 C    0  0  0  0  0  0  0
  1.721345 -3.066332  0.000000 C    0  0  0  0  0  0  0
  2.505967 -2.811394  0.000000 C    0  0  0  0  0  0  0
  2.505967 -1.986394  0.000000 C    0  0  0  0  0  0  0
  1.721345 -1.731455  0.000000 C    0  0  0  0  0  0  0
  3.119062 -1.434361  0.000000 C    0  0  0  0  0  0  0
  2.947534 -0.627389  0.000000 C    0  0  0  0  0  0  0
  2.162913 -0.372451  0.000000 C    0  0  0  0  0  0  0
  1.549819 -0.924484  0.000000 C    0  0  0  0  0  0  0
  1.549819 -3.873305  0.000000 C    0  0  0  0  0  0  0
  2.162913 -4.425338  0.000000 C    0  0  0  0  0  0  0
  2.947534 -4.170399  0.000000 C    0  0  0  0  0  0  0
  3.119062 -3.363427  0.000000 C    0  0  0  0  0  0  0
  0.972286  1.172021  0.000000 C    0  0  0  0  0  0  0
 -0.975973  1.076078  0.000000 C    0  0  0  0  0  0  0
 -0.011893  2.078218  0.000000 C    0  0  0  0  0  0  0
  1.442368  0.494047  0.000000 C    0  0  0  0  0  0  0
  2.264550  0.562163  0.000000 C    0  0  0  0  0  0  0
  2.616652  1.308252  0.000000 C    0  0  0  0  0  0  0
  2.146571  1.986225  0.000000 C    0  0  0  0  0  0  0
  1.324386  1.918109  0.000000 C    0  0  0  0  0  0  0
  0.660735  2.555916  0.000000 C    0  0  0  0  0  0  0
  0.583354  3.377278  0.000000 C    0  0  0  0  0  0  0
 -0.166659  3.720944  0.000000 C    0  0  0  0  0  0  0
 -0.839289  3.243247  0.000000 C    0  0  0  0  0  0  0
 -0.761906  2.421885  0.000000 C    0  0  0  0  0  0  0
 -1.315779  1.827846  0.000000 C    0  0  0  0  0  0  0
 -2.136733  1.909450  0.000000 C    0  0  0  0  0  0  0
 -2.617883  1.239286  0.000000 C    0  0  0  0  0  0  0
 -2.278076  0.487517  0.000000 C    0  0  0  0  0  0  0
 -1.457121  0.405912  0.000000 C    0  0  0  0  0  0  0
 -0.244042  4.542307  0.000000 F    0  0  0  0  0  0  0
  3.438836  1.376368  0.000000 F    0  0  0  0  0  0  0
 -3.438836  1.320890  0.000000 F    0  0  0  0  0  0  0
  2  3  1  0  0  0  0
  3  4  1  0  0  0  0
  4  5  1  0  0  0  0
  5  6  1  0  0  0  0
  6  7  1  0  0  0  0
  7  2  1  0  0  0  0
  7  8  1  0  0  0  0
  4  8  1  0  0  0  0
  2  1  1  0  0  0  0
  3  1  1  0  0  0  0
  6  1  1  0  0  0  0
  5  1  1  0  0  0  0
  1  9  1  0  0  0  0
  1 10  1  0  0  0  0
 10 11  2  0  0  0  0
 10 12  1  0  0  0  0
 12 13  2  0  0  0  0
 13 14  1  0  0  0  0
 14 15  2  0  0  0  0
 15 16  1  0  0  0  0
 16 17  2  0  0  0  0
 17 12  1  0  0  0  0
 11 18  1  0  0  0  0
 18 19  2  0  0  0  0
 19 20  1  0  0  0  0
 20 21  2  0  0  0  0
 21 11  1  0  0  0  0
 20 22  1  0  0  0  0
 22 23  2  0  0  0  0
 23 24  1  0  0  0  0
 24 25  2  0  0  0  0
 25 21  1  0  0  0  0
 18 26  1  0  0  0  0
 26 27  2  0  0  0  0
 27 28  1  0  0  0  0
 28 29  2  0  0  0  0
 29 19  1  0  0  0  0
  9 30  1  0  0  0  0
  9 31  1  0  0  0  0
  9 32  1  0  0  0  0
 30 33  2  0  0  0  0
 33 34  1  0  0  0  0
 34 35  2  0  0  0  0
 35 36  1  0  0  0  0
 36 37  2  0  0  0  0
 37 30  1  0  0  0  0
 32 38  2  0  0  0  0
 38 39  1  0  0  0  0
 39 40  2  0  0  0  0
 40 41  1  0  0  0  0
 41 42  2  0  0  0  0
 42 32  1  0  0  0  0
 31 43  2  0  0  0  0
 43 44  1  0  0  0  0
 44 45  2  0  0  0  0
 45 46  1  0  0  0  0
 46 47  2  0  0  0  0
 47 31  1  0  0  0  0
 40 48  1  0  0  0  0
 35 49  1  0  0  0  0
 45 50  1  0  0  0  0
M  END
> <NMREDATA_VERSION>
1.1

> <NMREDATA_LEVEL>
0

> <NMREDATA_SOLVENT>
C6D6

> <NMREDATA_TEMPERATURE>
298

> <NMREDATA_FORMULA>
C45H34F3PRh

> <NMREDATA_SMILES>
Fc1ccc(cc1)P([Rh]123(C(=C4c5ccccc5-c5c4cccc5)c4ccccc4)C4C3C3C2C1C4C3)(c1ccc(cc1)F)c1ccc(cc1)F

> <NMREDATA_ASSIGNMENT>
Rh1, 507.00, 1

> <NMREDATA_1D_103Rh>
507.00, L=Rh1

$$$$
RhMan0925_0112.mol
  ChemDraw01122616002D

M  V30 COUNTS 59 70 0 0 0
 -0.160853 -2.557020  0.000000 Rh   0  0  0  0  0  0  0
 -1.315512 -1.379716  0.000000 C    0  0  0  0  0  0  0
 -1.315512 -2.204716  0.000000 C    0  0  0  0  0  0  0
 -2.029984 -2.617216  0.000000 C    0  0  0  0  0  0  0
 -1.617485 -3.331689  0.000000 C    0  0  0  0  0  0  0
 -1.403957 -2.534799  0.000000 C    0  0  0  0  0  0  0
 -1.987322 -1.951437  0.000000 C    0  0  0  0  0  0  0
 -2.784209 -2.164961  0.000000 C    0  0  0  0  0  0  0
 -0.178520  0.149809  0.000000 P    0  0  0  0  0  0  0
  0.251647 -3.271488  0.000000 C    0  0  0  0  0  0  0
  1.076647 -3.271488  0.000000 C    0  0  0  0  0  0  0
 -0.160853 -3.985960  0.000000 C    0  0  0  0  0  0  0
 -0.985853 -3.985960  0.000000 C    0  0  0  0  0  0  0
 -1.398352 -4.700431  0.000000 C    0  0  0  0  0  0  0
 -0.985853 -5.414902  0.000000 C    0  0  0  0  0  0  0
 -0.160853 -5.414902  0.000000 C    0  0  0  0  0  0  0
  0.251647 -4.700431  0.000000 C    0  0  0  0  0  0  0
  1.561571 -3.938928  0.000000 C    0  0  0  0  0  0  0
  2.346192 -3.683988  0.000000 C    0  0  0  0  0  0  0
  2.346192 -2.858988  0.000000 C    0  0  0  0  0  0  0
  1.561571 -2.604050  0.000000 C    0  0  0  0  0  0  0
  2.959286 -2.306956  0.000000 C    0  0  0  0  0  0  0
  2.787759 -1.499985  0.000000 C    0  0  0  0  0  0  0
  2.003138 -1.245046  0.000000 C    0  0  0  0  0  0  0
  1.390043 -1.797078  0.000000 C    0  0  0  0  0  0  0
  1.390043 -4.745900  0.000000 C    0  0  0  0  0  0  0
  2.003138 -5.297933  0.000000 C    0  0  0  0  0  0  0
  2.787759 -5.042994  0.000000 C    0  0  0  0  0  0  0
  2.959286 -4.236021  0.000000 C    0  0  0  0  0  0  0
  1.886731  0.320909  0.000000 C    0  0  0  0  0  0  0
 -2.231453  0.353873  0.000000 C    0  0  0  0  0  0  0
 -0.365029  2.129452  0.000000 C    0  0  0  0  0  0  0
  2.356812 -0.357064  0.000000 C    0  0  0  0  0  0  0
  3.178995 -0.288949  0.000000 C    0  0  0  0  0  0  0
  3.531096  0.457142  0.000000 C    0  0  0  0  0  0  0
  3.061014  1.135116  0.000000 C    0  0  0  0  0  0  0
  2.238831  1.066999  0.000000 C    0  0  0  0  0  0  0
  0.307602  2.607148  0.000000 C    0  0  0  0  0  0  0
  0.230219  3.428512  0.000000 C    0  0  0  0  0  0  0
 -0.519794  3.772177  0.000000 C    0  0  0  0  0  0  0
 -1.192424  3.294480  0.000000 C    0  0  0  0  0  0  0
 -1.115041  2.473117  0.000000 C    0  0  0  0  0  0  0
 -2.571259  1.105641  0.000000 C    0  0  0  0  0  0  0
 -3.392212  1.187245  0.000000 C    0  0  0  0  0  0  0
 -3.873360  0.517080  0.000000 C    0  0  0  0  0  0  0
 -3.533555 -0.234689  0.000000 C    0  0  0  0  0  0  0
 -2.712601 -0.316292  0.000000 C    0  0  0  0  0  0  0
 -0.597177  4.593540  0.000000 C    0  0  0  0  0  0  0
  4.353279  0.525257  0.000000 C    0  0  0  0  0  0  0
 -4.694314  0.598684  0.000000 C    0  0  0  0  0  0  0
  0.075453  5.071236  0.000000 F    0  0  0  0  0  0  0
 -1.347190  4.937206  0.000000 F    0  0  0  0  0  0  0
 -0.674560  5.414902  0.000000 F    0  0  0  0  0  0  0
  4.823361 -0.152717  0.000000 F    0  0  0  0  0  0  0
  4.705380  1.271347  0.000000 F    0  0  0  0  0  0  0
  5.175461  0.593374  0.000000 F    0  0  0  0  0  0  0
 -5.175461 -0.071480  0.000000 F    0  0  0  0  0  0  0
 -5.034120  1.350453  0.000000 F    0  0  0  0  0  0  0
 -4.213166  1.268850  0.000000 F    0  0  0  0  0  0  0
  2  3  1  0  0  0  0
  3  4  1  0  0  0  0
  4  5  1  0  0  0  0
  5  6  1  0  0  0  0
  6  7  1  0  0  0  0
  7  2  1  0  0  0  0
  7  8  1  0  0  0  0
  4  8  1  0  0  0  0
  2  1  1  0  0  0  0
  3  1  1  0  0  0  0
  6  1  1  0  0  0  0
  5  1  1  0  0  0  0
  1  9  1  0  0  0  0
  1 10  1  0  0  0  0
 10 11  2  0  0  0  0
 10 12  1  0  0  0  0
 12 13  2  0  0  0  0
 13 14  1  0  0  0  0
 14 15  2  0  0  0  0
 15 16  1  0  0  0  0
 16 17  2  0  0  0  0
 17 12  1  0  0  0  0
 11 18  1  0  0  0  0
 18 19  2  0  0  0  0
 19 20  1  0  0  0  0
 20 21  2  0  0  0  0
 21 11  1  0  0  0  0
 20 22  1  0  0  0  0
 22 23  2  0  0  0  0
 23 24  1  0  0  0  0
 24 25  2  0  0  0  0
 25 21  1  0  0  0  0
 18 26  1  0  0  0  0
 26 27  2  0  0  0  0
 27 28  1  0  0  0  0
 28 29  2  0  0  0  0
 29 19  1  0  0  0  0
  9 30  1  0  0  0  0
  9 31  1  0  0  0  0
  9 32  1  0  0  0  0
 30 33  2  0  0  0  0
 33 34  1  0  0  0  0
 34 35  2  0  0  0  0
 35 36  1  0  0  0  0
 36 37  2  0  0  0  0
 37 30  1  0  0  0  0
 32 38  2  0  0  0  0
 38 39  1  0  0  0  0
 39 40  2  0  0  0  0
 40 41  1  0  0  0  0
 41 42  2  0  0  0  0
 42 32  1  0  0  0  0
 31 43  2  0  0  0  0
 43 44  1  0  0  0  0
 44 45  2  0  0  0  0
 45 46  1  0  0  0  0
 46 47  2  0  0  0  0
 47 31  1  0  0  0  0
 40 48  1  0  0  0  0
 35 49  1  0  0  0  0
 45 50  1  0  0  0  0
 48 51  1  0  0  0  0
 48 52  1  0  0  0  0
 48 53  1  0  0  0  0
 49 54  1  0  0  0  0
 49 55  1  0  0  0  0
 49 56  1  0  0  0  0
 50 57  1  0  0  0  0
 50 58  1  0  0  0  0
 50 59  1  0  0  0  0
M  END
> <NMREDATA_VERSION>
1.1

> <NMREDATA_LEVEL>
0

> <NMREDATA_SOLVENT>
CD2Cl2

> <NMREDATA_TEMPERATURE>
298

> <NMREDATA_FORMULA>
C48H34F9PRh

> <NMREDATA_SMILES>
FC(c1ccc(cc1)P([Rh]123(C(=C4c5ccccc5-c5c4cccc5)c4ccccc4)C4C3C3C2C1C4C3)(c1ccc(cc1)C(F)(F)F)c1ccc(cc1)C(F)(F)F)(F)F

> <NMREDATA_ASSIGNMENT>
Rh1, 499.00, 1

> <NMREDATA_1D_103Rh>
499.00, L=Rh1

$$$$
RhMan0925_0113.mol
  ChemDraw01122616002D

M  V30 COUNTS 71 82 0 0 0
  0.021346 -2.213354  0.000000 Rh   0  0  0  0  0  0  0
 -1.133315 -1.036052  0.000000 C    0  0  0  0  0  0  0
 -1.133315 -1.861052  0.000000 C    0  0  0  0  0  0  0
 -1.847786 -2.273551  0.000000 C    0  0  0  0  0  0  0
 -1.435286 -2.988022  0.000000 C    0  0  0  0  0  0  0
 -1.221760 -2.191134  0.000000 C    0  0  0  0  0  0  0
 -1.805123 -1.607771  0.000000 C    0  0  0  0  0  0  0
 -2.602012 -1.821297  0.000000 C    0  0  0  0  0  0  0
  0.003679  0.493474  0.000000 P    0  0  0  0  0  0  0
  0.433846 -2.927823  0.000000 C    0  0  0  0  0  0  0
  1.258846 -2.927823  0.000000 C    0  0  0  0  0  0  0
  0.021346 -3.642295  0.000000 C    0  0  0  0  0  0  0
 -0.803654 -3.642295  0.000000 C    0  0  0  0  0  0  0
 -1.216154 -4.356765  0.000000 C    0  0  0  0  0  0  0
 -0.803654 -5.071236  0.000000 C    0  0  0  0  0  0  0
  0.021346 -5.071236  0.000000 C    0  0  0  0  0  0  0
  0.433846 -4.356765  0.000000 C    0  0  0  0  0  0  0
  1.743768 -3.595262  0.000000 C    0  0  0  0  0  0  0
  2.528391 -3.340323  0.000000 C    0  0  0  0  0  0  0
  2.528391 -2.515323  0.000000 C    0  0  0  0  0  0  0
  1.743768 -2.260385  0.000000 C    0  0  0  0  0  0  0
  3.141485 -1.963292  0.000000 C    0  0  0  0  0  0  0
  2.969957 -1.156320  0.000000 C    0  0  0  0  0  0  0
  2.185336 -0.901380  0.000000 C    0  0  0  0  0  0  0
  1.572242 -1.453413  0.000000 C    0  0  0  0  0  0  0
  1.572242 -4.402234  0.000000 C    0  0  0  0  0  0  0
  2.185336 -4.954267  0.000000 C    0  0  0  0  0  0  0
  2.969957 -4.699328  0.000000 C    0  0  0  0  0  0  0
  3.141485 -3.892356  0.000000 C    0  0  0  0  0  0  0
  2.068928  0.664576  0.000000 C    0  0  0  0  0  0  0
 -2.049254  0.697537  0.000000 C    0  0  0  0  0  0  0
 -0.182829  2.473117  0.000000 C    0  0  0  0  0  0  0
  2.539010 -0.013398  0.000000 C    0  0  0  0  0  0  0
  3.361194  0.054717  0.000000 C    0  0  0  0  0  0  0
  3.713294  0.800807  0.000000 C    0  0  0  0  0  0  0
  3.243213  1.478780  0.000000 C    0  0  0  0  0  0  0
  2.421030  1.410664  0.000000 C    0  0  0  0  0  0  0
  0.489799  2.950815  0.000000 C    0  0  0  0  0  0  0
  0.412417  3.772176  0.000000 C    0  0  0  0  0  0  0
 -0.337596  4.115842  0.000000 C    0  0  0  0  0  0  0
 -1.010225  3.638145  0.000000 C    0  0  0  0  0  0  0
 -0.932842  2.816782  0.000000 C    0  0  0  0  0  0  0
 -2.389059  1.449306  0.000000 C    0  0  0  0  0  0  0
 -3.210014  1.530911  0.000000 C    0  0  0  0  0  0  0
 -3.691163  0.860746  0.000000 C    0  0  0  0  0  0  0
 -3.351356  0.108978  0.000000 C    0  0  0  0  0  0  0
 -2.530401  0.027373  0.000000 C    0  0  0  0  0  0  0
  3.125233  2.902844  0.000000 F    0  0  0  0  0  0  0
  3.947415  2.970959  0.000000 F    0  0  0  0  0  0  0
  3.595315  2.224870  0.000000 C    0  0  0  0  0  0  0
  4.417498  2.292985  0.000000 F    0  0  0  0  0  0  0
  4.653458 -0.555140  0.000000 F    0  0  0  0  0  0  0
  4.183376  0.122833  0.000000 F    0  0  0  0  0  0  0
  1.085046  4.249874  0.000000 C    0  0  0  0  0  0  0
  1.835058  3.906209  0.000000 F    0  0  0  0  0  0  0
  1.007663  5.071236  0.000000 F    0  0  0  0  0  0  0
  1.757675  4.727571  0.000000 F    0  0  0  0  0  0  0
 -1.760238  3.981811  0.000000 C    0  0  0  0  0  0  0
 -2.432867  3.504114  0.000000 F    0  0  0  0  0  0  0
 -1.837621  4.803174  0.000000 F    0  0  0  0  0  0  0
 -1.087607  4.459509  0.000000 F    0  0  0  0  0  0  0
 -3.549819  2.282680  0.000000 C    0  0  0  0  0  0  0
 -3.068672  2.952846  0.000000 F    0  0  0  0  0  0  0
 -4.370774  2.364284  0.000000 F    0  0  0  0  0  0  0
 -3.889626  3.034449  0.000000 F    0  0  0  0  0  0  0
 -3.492698 -1.312958  0.000000 F    0  0  0  0  0  0  0
 -4.653458 -0.479585  0.000000 F    0  0  0  0  0  0  0
 -3.832505 -0.561188  0.000000 C    0  0  0  0  0  0  0
 -4.172310  0.190581  0.000000 F    0  0  0  0  0  0  0
  3.831276 -0.623256  0.000000 C    0  0  0  0  0  0  0
  3.479173 -1.369346  0.000000 F    0  0  0  0  0  0  0
  2  3  1  0  0  0  0
  3  4  1  0  0  0  0
  4  5  1  0  0  0  0
  5  6  1  0  0  0  0
  6  7  1  0  0  0  0
  7  2  1  0  0  0  0
  7  8  1  0  0  0  0
  4  8  1  0  0  0  0
  2  1  1  0  0  0  0
  3  1  1  0  0  0  0
  6  1  1  0  0  0  0
  5  1  1  0  0  0  0
  1  9  1  0  0  0  0
  1 10  1  0  0  0  0
 10 11  2  0  0  0  0
 10 12  1  0  0  0  0
 12 13  2  0  0  0  0
 13 14  1  0  0  0  0
 14 15  2  0  0  0  0
 15 16  1  0  0  0  0
 16 17  2  0  0  0  0
 17 12  1  0  0  0  0
 11 18  1  0  0  0  0
 18 19  2  0  0  0  0
 19 20  1  0  0  0  0
 20 21  2  0  0  0  0
 21 11  1  0  0  0  0
 20 22  1  0  0  0  0
 22 23  2  0  0  0  0
 23 24  1  0  0  0  0
 24 25  2  0  0  0  0
 25 21  1  0  0  0  0
 18 26  1  0  0  0  0
 26 27  2  0  0  0  0
 27 28  1  0  0  0  0
 28 29  2  0  0  0  0
 29 19  1  0  0  0  0
  9 30  1  0  0  0  0
  9 31  1  0  0  0  0
  9 32  1  0  0  0  0
 30 33  2  0  0  0  0
 33 34  1  0  0  0  0
 34 35  2  0  0  0  0
 35 36  1  0  0  0  0
 36 37  2  0  0  0  0
 37 30  1  0  0  0  0
 32 38  2  0  0  0  0
 38 39  1  0  0  0  0
 39 40  2  0  0  0  0
 40 41  1  0  0  0  0
 41 42  2  0  0  0  0
 42 32  1  0  0  0  0
 31 43  2  0  0  0  0
 43 44  1  0  0  0  0
 44 45  2  0  0  0  0
 45 46  1  0  0  0  0
 46 47  2  0  0  0  0
 47 31  1  0  0  0  0
 36 50  1  0  0  0  0
 50 48  1  0  0  0  0
 50 49  1  0  0  0  0
 50 51  1  0  0  0  0
 34 70  1  0  0  0  0
 70 52  1  0  0  0  0
 70 53  1  0  0  0  0
 39 54  1  0  0  0  0
 54 55  1  0  0  0  0
 54 56  1  0  0  0  0
 54 57  1  0  0  0  0
 41 58  1  0  0  0  0
 58 59  1  0  0  0  0
 58 60  1  0  0  0  0
 58 61  1  0  0  0  0
 44 62  1  0  0  0  0
 62 63  1  0  0  0  0
 62 64  1  0  0  0  0
 62 65  1  0  0  0  0
 46 68  1  0  0  0  0
 68 66  1  0  0  0  0
 68 67  1  0  0  0  0
 68 69  1  0  0  0  0
 70 71  1  0  0  0  0
M  END
> <NMREDATA_VERSION>
1.1

> <NMREDATA_LEVEL>
0

> <NMREDATA_SOLVENT>
CD2Cl2

> <NMREDATA_TEMPERATURE>
298

> <NMREDATA_FORMULA>
C51H31F18PRh

> <NMREDATA_SMILES>
FC(c1cc(cc(c1)P([Rh]123(C(=C4c5ccccc5-c5c4cccc5)c4ccccc4)C4C3C3C2C1C4C3)(c1cc(cc(c1)C(F)(F)F)C(F)(F)F)c1cc(cc(c1)C(F)(F)F)C(F)(F)F)C(F)(F)F)(F)F

> <NMREDATA_ASSIGNMENT>
Rh1, 508.00, 1

> <NMREDATA_1D_103Rh>
508.00, L=Rh1

$$$$
RhMan0925_0114.mol
  ChemDraw01122616012D

M  V30 COUNTS 46 61 0 0 0
  0.009666 -1.835423  0.000000 Rh   0  0  0  0  0  0  0
 -1.144996 -0.658121  0.000000 C    0  0  0  0  0  0  0
 -1.144996 -1.483121  0.000000 C    0  0  0  0  0  0  0
 -1.859467 -1.895621  0.000000 C    0  0  0  0  0  0  0
 -1.446967 -2.610092  0.000000 C    0  0  0  0  0  0  0
 -1.233442 -1.813204  0.000000 C    0  0  0  0  0  0  0
 -1.816804 -1.229840  0.000000 C    0  0  0  0  0  0  0
 -2.613693 -1.443366  0.000000 C    0  0  0  0  0  0  0
 -0.008002  0.871404  0.000000 P    0  0  0  0  0  0  0
  2.057247  1.042505  0.000000 C    0  0  0  0  0  0  0
 -2.060935  1.075468  0.000000 C    0  0  0  0  0  0  0
 -0.194510  2.851048  0.000000 C    0  0  0  0  0  0  0
  2.527329  0.364532  0.000000 C    0  0  0  0  0  0  0
  3.349512  0.432647  0.000000 C    0  0  0  0  0  0  0
  3.701613  1.178737  0.000000 C    0  0  0  0  0  0  0
  3.231532  1.856710  0.000000 C    0  0  0  0  0  0  0
  2.409348  1.788595  0.000000 C    0  0  0  0  0  0  0
  0.478118  3.328745  0.000000 C    0  0  0  0  0  0  0
  0.400736  4.150107  0.000000 C    0  0  0  0  0  0  0
 -0.349276  4.493773  0.000000 C    0  0  0  0  0  0  0
 -1.021907  4.016075  0.000000 C    0  0  0  0  0  0  0
 -0.944523  3.194713  0.000000 C    0  0  0  0  0  0  0
 -2.400740  1.827237  0.000000 C    0  0  0  0  0  0  0
 -3.221695  1.908841  0.000000 C    0  0  0  0  0  0  0
 -3.702844  1.238676  0.000000 C    0  0  0  0  0  0  0
 -3.363037  0.486907  0.000000 C    0  0  0  0  0  0  0
 -2.542082  0.405303  0.000000 C    0  0  0  0  0  0  0
 -0.426659  5.315135  0.000000 F    0  0  0  0  0  0  0
 -4.523797  1.320280  0.000000 F    0  0  0  0  0  0  0
  4.523797  1.246853  0.000000 F    0  0  0  0  0  0  0
  0.110250 -2.758707  0.000000 C    0  0  0  0  0  0  0
  0.110250 -3.583707  0.000000 C    0  0  0  0  0  0  0
  0.824721 -3.996207  0.000000 C    0  0  0  0  0  0  0
  1.539190 -3.583707  0.000000 C    0  0  0  0  0  0  0
  1.539190 -2.758707  0.000000 C    0  0  0  0  0  0  0
  0.824721 -2.346207  0.000000 C    0  0  0  0  0  0  0
 -0.592075 -4.016564  0.000000 C    0  0  0  0  0  0  0
 -1.318102 -3.624762  0.000000 C    0  0  0  0  0  0  0
 -2.020427 -4.057619  0.000000 C    0  0  0  0  0  0  0
 -1.996724 -4.882278  0.000000 C    0  0  0  0  0  0  0
 -1.270696 -5.274080  0.000000 C    0  0  0  0  0  0  0
 -0.568372 -4.841223  0.000000 C    0  0  0  0  0  0  0
 -2.746455 -3.665818  0.000000 C    0  0  0  0  0  0  0
 -3.448779 -4.098674  0.000000 C    0  0  0  0  0  0  0
 -3.425076 -4.923333  0.000000 C    0  0  0  0  0  0  0
 -2.699049 -5.315135  0.000000 C    0  0  0  0  0  0  0
  2  3  1  0  0  0  0
  3  4  1  0  0  0  0
  4  5  1  0  0  0  0
  5  6  1  0  0  0  0
  6  7  1  0  0  0  0
  7  2  1  0  0  0  0
  7  8  1  0  0  0  0
  4  8  1  0  0  0  0
  2  1  1  0  0  0  0
  3  1  1  0  0  0  0
  6  1  1  0  0  0  0
  5  1  1  0  0  0  0
  1  9  1  0  0  0  0
  9 10  1  0  0  0  0
  9 11  1  0  0  0  0
  9 12  1  0  0  0  0
 10 13  2  0  0  0  0
 13 14  1  0  0  0  0
 14 15  2  0  0  0  0
 15 16  1  0  0  0  0
 16 17  2  0  0  0  0
 17 10  1  0  0  0  0
 12 18  2  0  0  0  0
 18 19  1  0  0  0  0
 19 20  2  0  0  0  0
 20 21  1  0  0  0  0
 21 22  2  0  0  0  0
 22 12  1  0  0  0  0
 11 23  2  0  0  0  0
 23 24  1  0  0  0  0
 24 25  2  0  0  0  0
 25 26  1  0  0  0  0
 26 27  2  0  0  0  0
 27 11  1  0  0  0  0
 20 28  1  0  0  0  0
 25 29  1  0  0  0  0
 15 30  1  0  0  0  0
 31 32  1  0  0  0  0
 32 33  1  0  0  0  0
 33 34  1  0  0  0  0
 34 35  1  0  0  0  0
 35 36  1  0  0  0  0
 36 31  1  0  0  0  0
  1 31  1  0  0  0  0
  1 36  1  0  0  0  0
  1 32  1  0  0  0  0
  1 33  1  0  0  0  0
  1 34  1  0  0  0  0
  1 35  1  0  0  0  0
 32 37  1  0  0  0  0
 37 38  2  0  0  0  0
 38 39  1  0  0  0  0
 39 40  2  0  0  0  0
 40 41  1  0  0  0  0
 41 42  2  0  0  0  0
 42 37  1  0  0  0  0
 39 43  1  0  0  0  0
 43 44  2  0  0  0  0
 44 45  1  0  0  0  0
 45 46  2  0  0  0  0
 46 40  1  0  0  0  0
M  END
> <NMREDATA_VERSION>
1.1

> <NMREDATA_LEVEL>
0

> <NMREDATA_SOLVENT>
C7D8

> <NMREDATA_TEMPERATURE>
298

> <NMREDATA_FORMULA>
C41H33F3PRh

> <NMREDATA_SMILES>
Fc1ccc(cc1)P([Rh]12345678(C9C4C7C8(C6C59)c4ccc5c(c4)cccc5)C4C3C3C2C1C4C3)(c1ccc(cc1)F)c1ccc(cc1)F

> <NMREDATA_ASSIGNMENT>
Rh1, 681.00, 1

> <NMREDATA_1D_103Rh>
681.00, L=Rh1

$$$$
RhMan0925_0115.mol
  ChemDraw01122616012D

M  V30 COUNTS 19 18 0 0 0
 -0.017356 -0.246600  0.000000 Rh   0  1  0  0  0  0  0
  0.027926  0.726938  0.000000 O    0  0  0  0  0  0  0
  0.742396  1.139438  0.000000 H    0  0  0  0  0  0  0
 -0.686545  1.139438  0.000000 H    0  0  0  0  0  0  0
  1.807946  0.249854  0.000000 O    0  0  0  0  0  0  0
  2.473562 -0.237570  0.000000 H    0  0  0  0  0  0  0
  1.897259  1.070005  0.000000 H    0  0  0  0  0  0  0
  0.566008 -0.829963  0.000000 O    0  0  0  0  0  0  0
  1.391007 -0.829963  0.000000 H    0  0  0  0  0  0  0
  0.566008 -1.654963  0.000000 H    0  0  0  0  0  0  0
 -0.429856 -0.961071  0.000000 O    0  0  0  0  0  0  0
 -0.216330 -1.757960  0.000000 H    0  0  0  0  0  0  0
 -1.144327 -1.373571  0.000000 H    0  0  0  0  0  0  0
 -0.842356 -0.246600  0.000000 O    0  0  0  0  0  0  0
 -1.556827 -0.659100  0.000000 H    0  0  0  0  0  0  0
 -1.639244 -0.033075  0.000000 H    0  0  0  0  0  0  0
 -1.728005  0.935674  0.000000 O    0  0  0  0  0  0  0
 -1.661133  1.757960  0.000000 H    0  0  0  0  0  0  0
 -2.473562  0.582446  0.000000 H    0  0  0  0  0  0  0
  2  3  1  0  0  0  0
  2  4  1  0  0  0  0
  5  6  1  0  0  0  0
  5  7  1  0  0  0  0
  1  2  1  0  0  0  0
  1  5  1  0  0  0  0
  1  8  1  0  0  0  0
  8  9  1  0  0  0  0
  8 10  1  0  0  0  0
  1 11  1  0  0  0  0
 11 12  1  0  0  0  0
 11 13  1  0  0  0  0
  1 14  1  0  0  0  0
 14 15  1  0  0  0  0
 14 16  1  0  0  0  0
  1 17  1  0  0  0  0
 17 18  1  0  0  0  0
 17 19  1  0  0  0  0
M  END
> <NMREDATA_VERSION>
1.1

> <NMREDATA_LEVEL>
0

> <NMREDATA_SOLVENT>
H2O

> <NMREDATA_TEMPERATURE>
298

> <NMREDATA_FORMULA>
H12O6Rh

> <NMREDATA_SMILES>
[OH2][Rh]([OH2])([OH2])([OH2])([OH2])[OH2]

> <NMREDATA_ASSIGNMENT>
Rh1, 9925.00, 1

> <NMREDATA_1D_103Rh>
9925.00, L=Rh1

$$$$
RhMan0925_0116.mol
  ChemDraw12172509382D

M  V30 COUNTS 17 16 0 0 0
 -0.124522  0.062661  0.000000 Rh   0  2  0  0  0  0  0
 -0.079241  1.036199  0.000000 O    0  0  0  0  0  0  0
  0.635230  1.448699  0.000000 H    0  0  0  0  0  0  0
 -0.793712  1.448699  0.000000 H    0  0  0  0  0  0  0
  1.120700  0.107942  0.000000 O    0  0  0  0  0  0  0
  1.835172  0.520442  0.000000 H    0  0  0  0  0  0  0
  0.406230  0.520442  0.000000 H    0  0  0  0  0  0  0
  0.458841 -0.520702  0.000000 O    0  0  0  0  0  0  0
  1.283841 -0.520702  0.000000 H    0  0  0  0  0  0  0
  0.458841 -1.345702  0.000000 H    0  0  0  0  0  0  0
 -0.537022 -0.651810  0.000000 O    0  0  0  0  0  0  0
 -0.323497 -1.448699  0.000000 H    0  0  0  0  0  0  0
 -1.251493 -1.064310  0.000000 H    0  0  0  0  0  0  0
 -0.949522  0.062661  0.000000 O    0  0  0  0  0  0  0
 -1.663993 -0.349839  0.000000 H    0  0  0  0  0  0  0
 -1.746411  0.276187  0.000000 H    0  0  0  0  0  0  0
 -1.835172  1.244935  0.000000 F    0  0  0  0  0  0  0
  2  3  1  0  0  0  0
  2  4  1  0  0  0  0
  5  6  1  0  0  0  0
  5  7  1  0  0  0  0
  1  2  1  0  0  0  0
  1  5  1  0  0  0  0
  1  8  1  0  0  0  0
  8  9  1  0  0  0  0
  8 10  1  0  0  0  0
  1 11  1  0  0  0  0
 11 12  1  0  0  0  0
 11 13  1  0  0  0  0
  1 14  1  0  0  0  0
 14 15  1  0  0  0  0
 14 16  1  0  0  0  0
  1 17  1  0  0  0  0
M  END
> <NMREDATA_VERSION>
1.1

> <NMREDATA_LEVEL>
0

> <NMREDATA_SOLVENT>
H2O

> <NMREDATA_TEMPERATURE>
298

> <NMREDATA_FORMULA>
FH10O5Rh

> <NMREDATA_SMILES>
[OH2][Rh](F)([OH2])([OH2])([OH2])[OH2]

> <NMREDATA_ASSIGNMENT>
Rh1, 10621.00, 1

> <NMREDATA_1D_103Rh>
10621.00, L=Rh1

$$$$
RhMan0925_0137.mol
  ChemDraw12172512052D

M  V30 COUNTS 62 71 0 0 0
 -2.974871 -0.116412  0.000000 P    0  0  0  0  0  0  0
 -2.290929 -1.039118  0.000000 C    0  0  0  0  0  0  0
 -2.980974  0.784617  0.000000 C    0  0  0  0  0  0  0
 -2.265134  1.194737  0.000000 C    0  0  0  0  0  0  0
 -2.265134  2.019732  0.000000 C    0  0  0  0  0  0  0
 -2.980974  2.434608  0.000000 C    0  0  0  0  0  0  0
 -3.696814  2.019732  0.000000 C    0  0  0  0  0  0  0
 -3.696814  1.194737  0.000000 C    0  0  0  0  0  0  0
 -3.005400 -1.451618  0.000000 C    0  0  0  0  0  0  0
 -3.005400 -2.276618  0.000000 C    0  0  0  0  0  0  0
 -2.290929 -2.689118  0.000000 C    0  0  0  0  0  0  0
 -1.576458 -2.276618  0.000000 C    0  0  0  0  0  0  0
 -1.576458 -1.451618  0.000000 C    0  0  0  0  0  0  0
 -2.260400  0.296088  0.000000 O    0  0  0  0  0  0  0
 -3.799871 -0.116412  0.000000 C    0  0  0  0  0  0  0
 -4.284794  0.551027  0.000000 N    0  0  0  0  0  0  0
 -5.069415  0.296088  0.000000 C    0  0  0  0  0  0  0
 -5.069415 -0.528912  0.000000 C    0  0  0  0  0  0  0
 -4.309220 -0.808278  0.000000 N    0  0  0  0  0  0  0
 -4.309220 -1.633278  0.000000 C    0  0  0  0  0  0  0
 -5.023691 -2.045778  0.000000 C    0  0  0  0  0  0  0
 -5.023691 -2.870778  0.000000 C    0  0  0  0  0  0  0
 -4.309220 -3.283278  0.000000 C    0  0  0  0  0  0  0
 -3.594749 -2.870778  0.000000 C    0  0  0  0  0  0  0
 -3.594749 -2.045778  0.000000 C    0  0  0  0  0  0  0
 -5.783886  0.708588  0.000000 C    0  0  0  0  0  0  0
 -6.498357  0.296088  0.000000 C    0  0  0  0  0  0  0
 -6.498357 -0.528912  0.000000 C    0  0  0  0  0  0  0
 -5.783886 -0.941412  0.000000 C    0  0  0  0  0  0  0
  2.956646  0.200844  0.000000 P    0  0  0  0  0  0  0
  2.328455  1.162372  0.000000 C    0  0  0  0  0  0  0
  2.909466 -0.698970  0.000000 C    0  0  0  0  0  0  0
  2.170631 -1.066050  0.000000 C    0  0  0  0  0  0  0
  2.121854 -1.889602  0.000000 C    0  0  0  0  0  0  0
  2.811913 -2.346075  0.000000 C    0  0  0  0  0  0  0
  3.551029 -1.974248  0.000000 C    0  0  0  0  0  0  0
  3.599805 -1.150696  0.000000 C    0  0  0  0  0  0  0
  3.066064  1.531908  0.000000 C    0  0  0  0  0  0  0
  3.114842  2.355465  0.000000 C    0  0  0  0  0  0  0
  2.426009  2.809486  0.000000 C    0  0  0  0  0  0  0
  1.688399  2.439950  0.000000 C    0  0  0  0  0  0  0
  1.639622  1.616393  0.000000 C    0  0  0  0  0  0  0
  2.219036 -0.168692  0.000000 O    0  0  0  0  0  0  0
  3.780202  0.152067  0.000000 C    0  0  0  0  0  0  0
  4.224816 -0.542876  0.000000 N    0  0  0  0  0  0  0
  5.023138 -0.334772  0.000000 C    0  0  0  0  0  0  0
  5.071915  0.488785  0.000000 C    0  0  0  0  0  0  0
  4.329567  0.812607  0.000000 N    0  0  0  0  0  0  0
  4.378344  1.636164  0.000000 C    0  0  0  0  0  0  0
  5.115953  2.005700  0.000000 C    0  0  0  0  0  0  0
  5.164731  2.829257  0.000000 C    0  0  0  0  0  0  0
  4.475898  3.283278  0.000000 C    0  0  0  0  0  0  0
  3.738288  2.913742  0.000000 C    0  0  0  0  0  0  0
  3.689511  2.090185  0.000000 C    0  0  0  0  0  0  0
  5.711970 -0.788792  0.000000 C    0  0  0  0  0  0  0
  6.449580 -0.419256  0.000000 C    0  0  0  0  0  0  0
  6.498357  0.404300  0.000000 C    0  0  0  0  0  0  0
  5.809524  0.858321  0.000000 C    0  0  0  0  0  0  0
 -0.239105  0.176705  0.000000 Rh   0  0  0  0  0  0  0
 -0.239105 -0.648295  0.000000 Cl   0  0  0  0  0  0  0
 -0.239105  1.001706  0.000000 C    0  0  0  0  0  0  0
 -0.239105  1.826706  0.000000 O    0  0  0  0  0  0  0
  1  2  1  0  0  0  0
  1  3  1  0  0  0  0
  3  4  2  0  0  0  0
  4  5  1  0  0  0  0
  5  6  2  0  0  0  0
  6  7  1  0  0  0  0
  7  8  2  0  0  0  0
  8  3  1  0  0  0  0
  2  9  2  0  0  0  0
  9 10  1  0  0  0  0
 10 11  2  0  0  0  0
 11 12  1  0  0  0  0
 12 13  2  0  0  0  0
 13  2  1  0  0  0  0
  1 14  2  0  0  0  0
  1 15  1  0  0  0  0
 15 16  2  0  0  0  0
 16 17  1  0  0  0  0
 17 18  2  0  0  0  0
 18 19  1  0  0  0  0
 19 15  1  0  0  0  0
 19 20  1  0  0  0  0
 20 21  2  0  0  0  0
 21 22  1  0  0  0  0
 22 23  2  0  0  0  0
 23 24  1  0  0  0  0
 24 25  2  0  0  0  0
 25 20  1  0  0  0  0
 17 26  1  0  0  0  0
 26 27  2  0  0  0  0
 27 28  1  0  0  0  0
 28 29  2  0  0  0  0
 29 18  1  0  0  0  0
 30 31  1  0  0  0  0
 30 32  1  0  0  0  0
 32 33  2  0  0  0  0
 33 34  1  0  0  0  0
 34 35  2  0  0  0  0
 35 36  1  0  0  0  0
 36 37  2  0  0  0  0
 37 32  1  0  0  0  0
 31 38  2  0  0  0  0
 38 39  1  0  0  0  0
 39 40  2  0  0  0  0
 40 41  1  0  0  0  0
 41 42  2  0  0  0  0
 42 31  1  0  0  0  0
 30 43  2  0  0  0  0
 30 44  1  0  0  0  0
 44 45  2  0  0  0  0
 45 46  1  0  0  0  0
 46 47  2  0  0  0  0
 47 48  1  0  0  0  0
 48 44  1  0  0  0  0
 48 49  1  0  0  0  0
 49 50  2  0  0  0  0
 50 51  1  0  0  0  0
 51 52  2  0  0  0  0
 52 53  1  0  0  0  0
 53 54  2  0  0  0  0
 54 49  1  0  0  0  0
 46 55  1  0  0  0  0
 55 56  2  0  0  0  0
 56 57  1  0  0  0  0
 57 58  2  0  0  0  0
 58 47  1  0  0  0  0
 59 60  1  0  0  0  0
 59 61  1  0  0  0  0
 61 62  3  0  0  0  0
 59  1  1  0  0  0  0
 59 30  1  0  0  0  0
M  END
> <NMREDATA_VERSION>
1.1

> <NMREDATA_LEVEL>
0

> <NMREDATA_SOLVENT>
CD2Cl2

> <NMREDATA_FORMULA>
C51H38ClN4O3P2Rh

> <NMREDATA_SMILES>
[O]#C[Rh]([P](=O)(c1nc2c(n1c1ccccc1)cccc2)(c1ccccc1)c1ccccc1)([P](=O)(c1nc2c(n1c1ccccc1)cccc2)(c1ccccc1)c1ccccc1)Cl

> <NMREDATA_ASSIGNMENT>
Rh59, -217.00, 59

> <NMREDATA_1D_103Rh>
-217.00, L=Rh59

$$$$
RhMan0925_0138.mol
  ChemDraw12172512182D

M  V30 COUNTS 66 75 2 0 0
 -2.973630 -0.116412  0.000000 P    0  0  0  0  0  0  0
 -2.289689 -1.039118  0.000000 C    0  0  0  0  0  0  0
 -2.979734  0.784617  0.000000 C    0  0  0  0  0  0  0
 -2.263893  1.194737  0.000000 C    0  0  0  0  0  0  0
 -2.263893  2.019732  0.000000 C    0  0  0  0  0  0  0
 -2.979734  2.434608  0.000000 C    0  0  0  0  0  0  0
 -3.695573  2.019732  0.000000 C    0  0  0  0  0  0  0
 -3.695573  1.194737  0.000000 C    0  0  0  0  0  0  0
 -3.004160 -1.451618  0.000000 C    0  0  0  0  0  0  0
 -3.004160 -2.276618  0.000000 C    0  0  0  0  0  0  0
 -2.289689 -2.689118  0.000000 C    0  0  0  0  0  0  0
 -1.575218 -2.276618  0.000000 C    0  0  0  0  0  0  0
 -1.575218 -1.451618  0.000000 C    0  0  0  0  0  0  0
 -3.798630 -0.116412  0.000000 C    0  0  0  0  0  0  0
 -4.283553  0.551027  0.000000 N    0  0  0  0  0  0  0
 -5.068175  0.296088  0.000000 C    0  0  0  0  0  0  0
 -5.068175 -0.528912  0.000000 C    0  0  0  0  0  0  0
 -4.307979 -0.808278  0.000000 N    0  0  0  0  0  0  0
 -4.307979 -1.633278  0.000000 C    0  0  0  0  0  0  0
 -5.022450 -2.045778  0.000000 C    0  0  0  0  0  0  0
 -5.022450 -2.870778  0.000000 C    0  0  0  0  0  0  0
 -4.307979 -3.283278  0.000000 C    0  0  0  0  0  0  0
 -3.593508 -2.870778  0.000000 C    0  0  0  0  0  0  0
 -3.593508 -2.045778  0.000000 C    0  0  0  0  0  0  0
 -5.782646  0.708588  0.000000 C    0  0  0  0  0  0  0
 -6.497117  0.296088  0.000000 C    0  0  0  0  0  0  0
 -6.497117 -0.528912  0.000000 C    0  0  0  0  0  0  0
 -5.782646 -0.941412  0.000000 C    0  0  0  0  0  0  0
  2.957887  0.200844  0.000000 P    0  0  0  0  0  0  0
  2.329695  1.162372  0.000000 C    0  0  0  0  0  0  0
  2.910707 -0.698970  0.000000 C    0  0  0  0  0  0  0
  2.171871 -1.066050  0.000000 C    0  0  0  0  0  0  0
  2.123094 -1.889602  0.000000 C    0  0  0  0  0  0  0
  2.813153 -2.346075  0.000000 C    0  0  0  0  0  0  0
  3.552270 -1.974248  0.000000 C    0  0  0  0  0  0  0
  3.601046 -1.150696  0.000000 C    0  0  0  0  0  0  0
  3.067305  1.531908  0.000000 C    0  0  0  0  0  0  0
  3.116082  2.355465  0.000000 C    0  0  0  0  0  0  0
  2.427249  2.809486  0.000000 C    0  0  0  0  0  0  0
  1.689640  2.439950  0.000000 C    0  0  0  0  0  0  0
  1.640863  1.616393  0.000000 C    0  0  0  0  0  0  0
  3.781443  0.152067  0.000000 C    0  0  0  0  0  0  0
  4.226056 -0.542876  0.000000 N    0  0  0  0  0  0  0
  5.024378 -0.334772  0.000000 C    0  0  0  0  0  0  0
  5.073156  0.488785  0.000000 C    0  0  0  0  0  0  0
  4.330807  0.812607  0.000000 N    0  0  0  0  0  0  0
  4.379584  1.636164  0.000000 C    0  0  0  0  0  0  0
  5.117193  2.005700  0.000000 C    0  0  0  0  0  0  0
  5.165971  2.829257  0.000000 C    0  0  0  0  0  0  0
  4.477138  3.283278  0.000000 C    0  0  0  0  0  0  0
  3.739529  2.913742  0.000000 C    0  0  0  0  0  0  0
  3.690752  2.090185  0.000000 C    0  0  0  0  0  0  0
  5.713211 -0.788792  0.000000 C    0  0  0  0  0  0  0
  6.450821 -0.419256  0.000000 C    0  0  0  0  0  0  0
  6.499598  0.404300  0.000000 C    0  0  0  0  0  0  0
  5.810765  0.858321  0.000000 C    0  0  0  0  0  0  0
 -0.237865  0.176705  0.000000 Rh   0  0  0  0  0  0  0
 -0.237865 -0.648295  0.000000 Cl   0  0  0  0  0  0  0
 -0.237865  1.001706  0.000000 C    0  0  0  0  0  0  0
 -0.237865  1.826706  0.000000 O    0  0  0  0  0  0  0
 -7.211588  0.708588  0.000000 N    0  3  0  0  0  0  0
 -7.211588  1.532981  0.000000 O    0  0  0  0  0  0  0
 -7.925534  0.296391  0.000000 O    0  5  0  0  0  0  0
  7.237207  0.773837  0.000000 N    0  3  0  0  0  0  0
  7.925534  0.320150  0.000000 O    0  0  0  0  0  0  0
  7.285949  1.596788  0.000000 O    0  5  0  0  0  0  0
 61 62  2  0  0  0  0
 61 63  1  0  0  0  0
 26 61  1  0  0  0  0
 64 65  2  0  0  0  0
 64 66  1  0  0  0  0
 55 64  1  0  0  0  0
  1  2  1  0  0  0  0
  1  3  1  0  0  0  0
  3  4  2  0  0  0  0
  4  5  1  0  0  0  0
  5  6  2  0  0  0  0
  6  7  1  0  0  0  0
  7  8  2  0  0  0  0
  8  3  1  0  0  0  0
  2  9  2  0  0  0  0
  9 10  1  0  0  0  0
 10 11  2  0  0  0  0
 11 12  1  0  0  0  0
 12 13  2  0  0  0  0
 13  2  1  0  0  0  0
  1 14  1  0  0  0  0
 14 15  2  0  0  0  0
 15 16  1  0  0  0  0
 16 17  2  0  0  0  0
 17 18  1  0  0  0  0
 18 14  1  0  0  0  0
 18 19  1  0  0  0  0
 19 20  2  0  0  0  0
 20 21  1  0  0  0  0
 21 22  2  0  0  0  0
 22 23  1  0  0  0  0
 23 24  2  0  0  0  0
 24 19  1  0  0  0  0
 16 25  1  0  0  0  0
 25 26  2  0  0  0  0
 26 27  1  0  0  0  0
 27 28  2  0  0  0  0
 28 17  1  0  0  0  0
 29 30  1  0  0  0  0
 29 31  1  0  0  0  0
 31 32  2  0  0  0  0
 32 33  1  0  0  0  0
 33 34  2  0  0  0  0
 34 35  1  0  0  0  0
 35 36  2  0  0  0  0
 36 31  1  0  0  0  0
 30 37  2  0  0  0  0
 37 38  1  0  0  0  0
 38 39  2  0  0  0  0
 39 40  1  0  0  0  0
 40 41  2  0  0  0  0
 41 30  1  0  0  0  0
 29 42  1  0  0  0  0
 42 43  2  0  0  0  0
 43 44  1  0  0  0  0
 44 45  2  0  0  0  0
 45 46  1  0  0  0  0
 46 42  1  0  0  0  0
 46 47  1  0  0  0  0
 47 48  2  0  0  0  0
 48 49  1  0  0  0  0
 49 50  2  0  0  0  0
 50 51  1  0  0  0  0
 51 52  2  0  0  0  0
 52 47  1  0  0  0  0
 44 53  1  0  0  0  0
 53 54  2  0  0  0  0
 54 55  1  0  0  0  0
 55 56  2  0  0  0  0
 56 45  1  0  0  0  0
 57 58  1  0  0  0  0
 57 59  1  0  0  0  0
 59 60  3  0  0  0  0
 57  1  1  0  0  0  0
 57 29  1  0  0  0  0
M  END
> <NMREDATA_VERSION>
1.1

> <NMREDATA_LEVEL>
0

> <NMREDATA_SOLVENT>
CD2Cl2

> <NMREDATA_FORMULA>
C51H42ClN6O5P2Rh

> <NMREDATA_SMILES>
[O]#C[Rh](P(c1nc2c(n1c1ccccc1)ccc(c2)N(=O)O)(c1ccccc1)c1ccccc1)(P(c1nc2c(n1c1ccccc1)cc(cc2)N(=O)O)(c1ccccc1)c1ccccc1)Cl

> <NMREDATA_ASSIGNMENT>
Rh57, -244.00, 57

> <NMREDATA_1D_103Rh>
-244.00, L=Rh57

$$$$
RhMan0925_0139.mol
  ChemDraw12172512202D

M  V30 COUNTS 66 75 2 0 0
 -2.949224 -0.116412  0.000000 P    0  0  0  0  0  0  0
 -2.265282 -1.039118  0.000000 C    0  0  0  0  0  0  0
 -2.955327  0.784617  0.000000 C    0  0  0  0  0  0  0
 -2.239487  1.194737  0.000000 C    0  0  0  0  0  0  0
 -2.239487  2.019732  0.000000 C    0  0  0  0  0  0  0
 -2.955327  2.434608  0.000000 C    0  0  0  0  0  0  0
 -3.671166  2.019732  0.000000 C    0  0  0  0  0  0  0
 -3.671166  1.194737  0.000000 C    0  0  0  0  0  0  0
 -2.979753 -1.451618  0.000000 C    0  0  0  0  0  0  0
 -2.979753 -2.276618  0.000000 C    0  0  0  0  0  0  0
 -2.265282 -2.689118  0.000000 C    0  0  0  0  0  0  0
 -1.550811 -2.276618  0.000000 C    0  0  0  0  0  0  0
 -1.550811 -1.451618  0.000000 C    0  0  0  0  0  0  0
 -3.774224 -0.116412  0.000000 C    0  0  0  0  0  0  0
 -4.259147  0.551027  0.000000 N    0  0  0  0  0  0  0
 -5.043768  0.296088  0.000000 C    0  0  0  0  0  0  0
 -5.043768 -0.528912  0.000000 C    0  0  0  0  0  0  0
 -4.283573 -0.808278  0.000000 N    0  0  0  0  0  0  0
 -4.283573 -1.633278  0.000000 C    0  0  0  0  0  0  0
 -4.998044 -2.045778  0.000000 C    0  0  0  0  0  0  0
 -4.998044 -2.870778  0.000000 C    0  0  0  0  0  0  0
 -4.283573 -3.283278  0.000000 C    0  0  0  0  0  0  0
 -3.569102 -2.870778  0.000000 C    0  0  0  0  0  0  0
 -3.569102 -2.045778  0.000000 C    0  0  0  0  0  0  0
 -5.758239  0.708588  0.000000 C    0  0  0  0  0  0  0
 -6.472710  0.296088  0.000000 C    0  0  0  0  0  0  0
 -6.472710 -0.528912  0.000000 C    0  0  0  0  0  0  0
 -5.758239 -0.941412  0.000000 C    0  0  0  0  0  0  0
  2.982293  0.200844  0.000000 P    0  0  0  0  0  0  0
  2.354102  1.162372  0.000000 C    0  0  0  0  0  0  0
  2.935113 -0.698970  0.000000 C    0  0  0  0  0  0  0
  2.196278 -1.066050  0.000000 C    0  0  0  0  0  0  0
  2.147501 -1.889602  0.000000 C    0  0  0  0  0  0  0
  2.837560 -2.346075  0.000000 C    0  0  0  0  0  0  0
  3.576676 -1.974248  0.000000 C    0  0  0  0  0  0  0
  3.625453 -1.150696  0.000000 C    0  0  0  0  0  0  0
  3.091712  1.531908  0.000000 C    0  0  0  0  0  0  0
  3.140489  2.355465  0.000000 C    0  0  0  0  0  0  0
  2.451656  2.809486  0.000000 C    0  0  0  0  0  0  0
  1.714046  2.439950  0.000000 C    0  0  0  0  0  0  0
  1.665269  1.616393  0.000000 C    0  0  0  0  0  0  0
  3.805850  0.152067  0.000000 C    0  0  0  0  0  0  0
  4.250463 -0.542876  0.000000 N    0  0  0  0  0  0  0
  5.048785 -0.334772  0.000000 C    0  0  0  0  0  0  0
  5.097562  0.488785  0.000000 C    0  0  0  0  0  0  0
  4.355214  0.812607  0.000000 N    0  0  0  0  0  0  0
  4.403991  1.636164  0.000000 C    0  0  0  0  0  0  0
  5.141600  2.005700  0.000000 C    0  0  0  0  0  0  0
  5.190378  2.829257  0.000000 C    0  0  0  0  0  0  0
  4.501545  3.283278  0.000000 C    0  0  0  0  0  0  0
  3.763935  2.913742  0.000000 C    0  0  0  0  0  0  0
  3.715158  2.090185  0.000000 C    0  0  0  0  0  0  0
  5.737617 -0.788792  0.000000 C    0  0  0  0  0  0  0
  6.475227 -0.419256  0.000000 C    0  0  0  0  0  0  0
  6.524004  0.404300  0.000000 C    0  0  0  0  0  0  0
  5.835171  0.858321  0.000000 C    0  0  0  0  0  0  0
 -0.213458  0.176705  0.000000 Rh   0  0  0  0  0  0  0
 -0.213458 -0.648295  0.000000 Cl   0  0  0  0  0  0  0
 -0.213458  1.001706  0.000000 C    0  0  0  0  0  0  0
 -0.213458  1.826706  0.000000 O    0  0  0  0  0  0  0
 -7.187181 -0.941412  0.000000 N    0  3  0  0  0  0  0
 -7.901127 -0.529216  0.000000 O    0  0  0  0  0  0  0
 -7.187181 -1.765806  0.000000 O    0  5  0  0  0  0  0
  7.164059 -0.873277  0.000000 N    0  3  0  0  0  0  0
  7.115318 -1.696228  0.000000 O    0  0  0  0  0  0  0
  7.901127 -0.504012  0.000000 O    0  5  0  0  0  0  0
 61 62  2  0  0  0  0
 61 63  1  0  0  0  0
 27 61  1  0  0  0  0
 64 65  2  0  0  0  0
 64 66  1  0  0  0  0
 54 64  1  0  0  0  0
  1  2  1  0  0  0  0
  1  3  1  0  0  0  0
  3  4  2  0  0  0  0
  4  5  1  0  0  0  0
  5  6  2  0  0  0  0
  6  7  1  0  0  0  0
  7  8  2  0  0  0  0
  8  3  1  0  0  0  0
  2  9  2  0  0  0  0
  9 10  1  0  0  0  0
 10 11  2  0  0  0  0
 11 12  1  0  0  0  0
 12 13  2  0  0  0  0
 13  2  1  0  0  0  0
  1 14  1  0  0  0  0
 14 15  2  0  0  0  0
 15 16  1  0  0  0  0
 16 17  2  0  0  0  0
 17 18  1  0  0  0  0
 18 14  1  0  0  0  0
 18 19  1  0  0  0  0
 19 20  2  0  0  0  0
 20 21  1  0  0  0  0
 21 22  2  0  0  0  0
 22 23  1  0  0  0  0
 23 24  2  0  0  0  0
 24 19  1  0  0  0  0
 16 25  1  0  0  0  0
 25 26  2  0  0  0  0
 26 27  1  0  0  0  0
 27 28  2  0  0  0  0
 28 17  1  0  0  0  0
 29 30  1  0  0  0  0
 29 31  1  0  0  0  0
 31 32  2  0  0  0  0
 32 33  1  0  0  0  0
 33 34  2  0  0  0  0
 34 35  1  0  0  0  0
 35 36  2  0  0  0  0
 36 31  1  0  0  0  0
 30 37  2  0  0  0  0
 37 38  1  0  0  0  0
 38 39  2  0  0  0  0
 39 40  1  0  0  0  0
 40 41  2  0  0  0  0
 41 30  1  0  0  0  0
 29 42  1  0  0  0  0
 42 43  2  0  0  0  0
 43 44  1  0  0  0  0
 44 45  2  0  0  0  0
 45 46  1  0  0  0  0
 46 42  1  0  0  0  0
 46 47  1  0  0  0  0
 47 48  2  0  0  0  0
 48 49  1  0  0  0  0
 49 50  2  0  0  0  0
 50 51  1  0  0  0  0
 51 52  2  0  0  0  0
 52 47  1  0  0  0  0
 44 53  1  0  0  0  0
 53 54  2  0  0  0  0
 54 55  1  0  0  0  0
 55 56  2  0  0  0  0
 56 45  1  0  0  0  0
 57 58  1  0  0  0  0
 57 59  1  0  0  0  0
 59 60  3  0  0  0  0
 57  1  1  0  0  0  0
 57 29  1  0  0  0  0
M  END
> <NMREDATA_VERSION>
1.1

> <NMREDATA_LEVEL>
0

> <NMREDATA_SOLVENT>
CD2Cl2

> <NMREDATA_FORMULA>
C51H42ClN6O5P2Rh

> <NMREDATA_SMILES>
[O]#C[Rh](P(c1nc2c(n1c1ccccc1)ccc(c2)N(=O)O)(c1ccccc1)c1ccccc1)(P(c1nc2c(n1c1ccccc1)cc(cc2)N(=O)O)(c1ccccc1)c1ccccc1)Cl

> <NMREDATA_ASSIGNMENT>
Rh57, -243.00, 57

> <NMREDATA_1D_103Rh>
-243.00, L=Rh57

$$$$
RhMan0925_0140.mol
  ChemDraw12172512222D

M  V30 COUNTS 72 81 4 0 0
 -2.949224 -0.136436  0.000000 P    0  0  0  0  0  0  0
 -2.265282 -1.059141  0.000000 C    0  0  0  0  0  0  0
 -2.955327  0.764594  0.000000 C    0  0  0  0  0  0  0
 -2.239487  1.174714  0.000000 C    0  0  0  0  0  0  0
 -2.239487  1.999709  0.000000 C    0  0  0  0  0  0  0
 -2.955327  2.414585  0.000000 C    0  0  0  0  0  0  0
 -3.671166  1.999709  0.000000 C    0  0  0  0  0  0  0
 -3.671166  1.174714  0.000000 C    0  0  0  0  0  0  0
 -2.979753 -1.471641  0.000000 C    0  0  0  0  0  0  0
 -2.979753 -2.296641  0.000000 C    0  0  0  0  0  0  0
 -2.265282 -2.709141  0.000000 C    0  0  0  0  0  0  0
 -1.550811 -2.296641  0.000000 C    0  0  0  0  0  0  0
 -1.550811 -1.471641  0.000000 C    0  0  0  0  0  0  0
 -3.774224 -0.136436  0.000000 C    0  0  0  0  0  0  0
 -4.259147  0.531004  0.000000 N    0  0  0  0  0  0  0
 -5.043768  0.276064  0.000000 C    0  0  0  0  0  0  0
 -5.043768 -0.548936  0.000000 C    0  0  0  0  0  0  0
 -4.283573 -0.828301  0.000000 N    0  0  0  0  0  0  0
 -4.283573 -1.653301  0.000000 C    0  0  0  0  0  0  0
 -4.998044 -2.065801  0.000000 C    0  0  0  0  0  0  0
 -4.998044 -2.890801  0.000000 C    0  0  0  0  0  0  0
 -4.283573 -3.303301  0.000000 C    0  0  0  0  0  0  0
 -3.569102 -2.890801  0.000000 C    0  0  0  0  0  0  0
 -3.569102 -2.065801  0.000000 C    0  0  0  0  0  0  0
 -5.758239  0.688564  0.000000 C    0  0  0  0  0  0  0
 -6.472710  0.276064  0.000000 C    0  0  0  0  0  0  0
 -6.472710 -0.548936  0.000000 C    0  0  0  0  0  0  0
 -5.758239 -0.961436  0.000000 C    0  0  0  0  0  0  0
  2.982293  0.180820  0.000000 P    0  0  0  0  0  0  0
  2.354102  1.142349  0.000000 C    0  0  0  0  0  0  0
  2.935113 -0.718994  0.000000 C    0  0  0  0  0  0  0
  2.196278 -1.086073  0.000000 C    0  0  0  0  0  0  0
  2.147501 -1.909625  0.000000 C    0  0  0  0  0  0  0
  2.837560 -2.366099  0.000000 C    0  0  0  0  0  0  0
  3.576676 -1.994272  0.000000 C    0  0  0  0  0  0  0
  3.625453 -1.170720  0.000000 C    0  0  0  0  0  0  0
  3.091712  1.511885  0.000000 C    0  0  0  0  0  0  0
  3.140489  2.335442  0.000000 C    0  0  0  0  0  0  0
  2.451656  2.789463  0.000000 C    0  0  0  0  0  0  0
  1.714046  2.419927  0.000000 C    0  0  0  0  0  0  0
  1.665269  1.596370  0.000000 C    0  0  0  0  0  0  0
  3.805850  0.132043  0.000000 C    0  0  0  0  0  0  0
  4.250463 -0.562899  0.000000 N    0  0  0  0  0  0  0
  5.048785 -0.354795  0.000000 C    0  0  0  0  0  0  0
  5.097562  0.468762  0.000000 C    0  0  0  0  0  0  0
  4.355214  0.792584  0.000000 N    0  0  0  0  0  0  0
  4.403991  1.616141  0.000000 C    0  0  0  0  0  0  0
  5.141600  1.985677  0.000000 C    0  0  0  0  0  0  0
  5.190378  2.809234  0.000000 C    0  0  0  0  0  0  0
  4.501545  3.263255  0.000000 C    0  0  0  0  0  0  0
  3.763935  2.893718  0.000000 C    0  0  0  0  0  0  0
  3.715158  2.070162  0.000000 C    0  0  0  0  0  0  0
  5.737617 -0.808816  0.000000 C    0  0  0  0  0  0  0
  6.475227 -0.439280  0.000000 C    0  0  0  0  0  0  0
  6.524004  0.384277  0.000000 C    0  0  0  0  0  0  0
  5.835171  0.838298  0.000000 C    0  0  0  0  0  0  0
 -0.213458  0.156682  0.000000 Rh   0  0  0  0  0  0  0
 -0.213458 -0.668318  0.000000 Cl   0  0  0  0  0  0  0
 -0.213458  0.981682  0.000000 C    0  0  0  0  0  0  0
 -0.213458  1.806682  0.000000 O    0  0  0  0  0  0  0
 -7.187181 -0.961436  0.000000 N    0  3  0  0  0  0  0
 -7.901127 -0.549239  0.000000 O    0  0  0  0  0  0  0
 -7.187181 -1.785829  0.000000 O    0  5  0  0  0  0  0
  7.164059 -0.893300  0.000000 N    0  3  0  0  0  0  0
  7.115318 -1.716252  0.000000 O    0  0  0  0  0  0  0
  7.901127 -0.524036  0.000000 O    0  5  0  0  0  0  0
 -4.283573 -4.128301  0.000000 N    0  3  0  0  0  0  0
 -4.997519 -4.540498  0.000000 O    0  0  0  0  0  0  0
 -3.569627 -4.540498  0.000000 O    0  5  0  0  0  0  0
  4.550322  4.086811  0.000000 N    0  3  0  0  0  0  0
  5.287389  4.456076  0.000000 O    0  0  0  0  0  0  0
  3.861996  4.540498  0.000000 O    0  5  0  0  0  0  0
 61 62  2  0  0  0  0
 61 63  1  0  0  0  0
 27 61  1  0  0  0  0
 64 65  2  0  0  0  0
 64 66  1  0  0  0  0
 54 64  1  0  0  0  0
 67 68  2  0  0  0  0
 67 69  1  0  0  0  0
 22 67  1  0  0  0  0
 70 71  2  0  0  0  0
 70 72  1  0  0  0  0
 50 70  1  0  0  0  0
  1  2  1  0  0  0  0
  1  3  1  0  0  0  0
  3  4  2  0  0  0  0
  4  5  1  0  0  0  0
  5  6  2  0  0  0  0
  6  7  1  0  0  0  0
  7  8  2  0  0  0  0
  8  3  1  0  0  0  0
  2  9  2  0  0  0  0
  9 10  1  0  0  0  0
 10 11  2  0  0  0  0
 11 12  1  0  0  0  0
 12 13  2  0  0  0  0
 13  2  1  0  0  0  0
  1 14  1  0  0  0  0
 14 15  2  0  0  0  0
 15 16  1  0  0  0  0
 16 17  2  0  0  0  0
 17 18  1  0  0  0  0
 18 14  1  0  0  0  0
 18 19  1  0  0  0  0
 19 20  2  0  0  0  0
 20 21  1  0  0  0  0
 21 22  2  0  0  0  0
 22 23  1  0  0  0  0
 23 24  2  0  0  0  0
 24 19  1  0  0  0  0
 16 25  1  0  0  0  0
 25 26  2  0  0  0  0
 26 27  1  0  0  0  0
 27 28  2  0  0  0  0
 28 17  1  0  0  0  0
 29 30  1  0  0  0  0
 29 31  1  0  0  0  0
 31 32  2  0  0  0  0
 32 33  1  0  0  0  0
 33 34  2  0  0  0  0
 34 35  1  0  0  0  0
 35 36  2  0  0  0  0
 36 31  1  0  0  0  0
 30 37  2  0  0  0  0
 37 38  1  0  0  0  0
 38 39  2  0  0  0  0
 39 40  1  0  0  0  0
 40 41  2  0  0  0  0
 41 30  1  0  0  0  0
 29 42  1  0  0  0  0
 42 43  2  0  0  0  0
 43 44  1  0  0  0  0
 44 45  2  0  0  0  0
 45 46  1  0  0  0  0
 46 42  1  0  0  0  0
 46 47  1  0  0  0  0
 47 48  2  0  0  0  0
 48 49  1  0  0  0  0
 49 50  2  0  0  0  0
 50 51  1  0  0  0  0
 51 52  2  0  0  0  0
 52 47  1  0  0  0  0
 44 53  1  0  0  0  0
 53 54  2  0  0  0  0
 54 55  1  0  0  0  0
 55 56  2  0  0  0  0
 56 45  1  0  0  0  0
 57 58  1  0  0  0  0
 57 59  1  0  0  0  0
 59 60  3  0  0  0  0
 57  1  1  0  0  0  0
 57 29  1  0  0  0  0
M  END
> <NMREDATA_VERSION>
1.1

> <NMREDATA_LEVEL>
0

> <NMREDATA_SOLVENT>
CD2Cl2

> <NMREDATA_FORMULA>
C51H44ClN8O9P2Rh

> <NMREDATA_SMILES>
[O]#C[Rh](P(c1nc2c(n1c1ccc(cc1)N(=O)O)ccc(c2)N(=O)O)(c1ccccc1)c1ccccc1)(P(c1nc2c(n1c1ccc(cc1)N(=O)O)cc(cc2)N(=O)O)(c1ccccc1)c1ccccc1)Cl

> <NMREDATA_ASSIGNMENT>
Rh57, -243.00, 57

> <NMREDATA_1D_103Rh>
-243.00, L=Rh57

$$$$
RhMan0925_0141.mol
  ChemDraw12172514022D

M  V30 COUNTS 64 73 0 0 0
 -2.974871 -0.116412  0.000000 P    0  0  0  0  0  0  0
 -2.290929 -1.039118  0.000000 C    0  0  0  0  0  0  0
 -2.980974  0.784617  0.000000 C    0  0  0  0  0  0  0
 -2.265134  1.194737  0.000000 C    0  0  0  0  0  0  0
 -2.265134  2.019732  0.000000 C    0  0  0  0  0  0  0
 -2.980974  2.434608  0.000000 C    0  0  0  0  0  0  0
 -3.696814  2.019732  0.000000 C    0  0  0  0  0  0  0
 -3.696814  1.194737  0.000000 C    0  0  0  0  0  0  0
 -3.005400 -1.451618  0.000000 C    0  0  0  0  0  0  0
 -3.005400 -2.276618  0.000000 C    0  0  0  0  0  0  0
 -2.290929 -2.689118  0.000000 C    0  0  0  0  0  0  0
 -1.576458 -2.276618  0.000000 C    0  0  0  0  0  0  0
 -1.576458 -1.451618  0.000000 C    0  0  0  0  0  0  0
 -3.799871 -0.116412  0.000000 C    0  0  0  0  0  0  0
 -4.284794  0.551027  0.000000 N    0  3  0  0  0  0  0
 -5.069415  0.296088  0.000000 C    0  0  0  0  0  0  0
 -5.069415 -0.528912  0.000000 C    0  0  0  0  0  0  0
 -4.309220 -0.808278  0.000000 N    0  0  0  0  0  0  0
 -4.309220 -1.633278  0.000000 C    0  0  0  0  0  0  0
 -5.023691 -2.045778  0.000000 C    0  0  0  0  0  0  0
 -5.023691 -2.870778  0.000000 C    0  0  0  0  0  0  0
 -4.309220 -3.283278  0.000000 C    0  0  0  0  0  0  0
 -3.594749 -2.870778  0.000000 C    0  0  0  0  0  0  0
 -3.594749 -2.045778  0.000000 C    0  0  0  0  0  0  0
 -5.783886  0.708588  0.000000 C    0  0  0  0  0  0  0
 -6.498357  0.296088  0.000000 C    0  0  0  0  0  0  0
 -6.498357 -0.528912  0.000000 C    0  0  0  0  0  0  0
 -5.783886 -0.941412  0.000000 C    0  0  0  0  0  0  0
  2.956646  0.200844  0.000000 P    0  0  0  0  0  0  0
  2.328455  1.162372  0.000000 C    0  0  0  0  0  0  0
  2.909466 -0.698970  0.000000 C    0  0  0  0  0  0  0
  2.170631 -1.066050  0.000000 C    0  0  0  0  0  0  0
  2.121854 -1.889602  0.000000 C    0  0  0  0  0  0  0
  2.811913 -2.346075  0.000000 C    0  0  0  0  0  0  0
  3.551029 -1.974248  0.000000 C    0  0  0  0  0  0  0
  3.599805 -1.150696  0.000000 C    0  0  0  0  0  0  0
  3.066064  1.531908  0.000000 C    0  0  0  0  0  0  0
  3.114842  2.355465  0.000000 C    0  0  0  0  0  0  0
  2.426009  2.809486  0.000000 C    0  0  0  0  0  0  0
  1.688399  2.439950  0.000000 C    0  0  0  0  0  0  0
  1.639622  1.616393  0.000000 C    0  0  0  0  0  0  0
  3.780202  0.152067  0.000000 C    0  0  0  0  0  0  0
  4.224816 -0.542876  0.000000 N    0  3  0  0  0  0  0
  5.023138 -0.334772  0.000000 C    0  0  0  0  0  0  0
  5.071915  0.488785  0.000000 C    0  0  0  0  0  0  0
  4.329567  0.812607  0.000000 N    0  0  0  0  0  0  0
  4.378344  1.636164  0.000000 C    0  0  0  0  0  0  0
  5.115953  2.005700  0.000000 C    0  0  0  0  0  0  0
  5.164731  2.829257  0.000000 C    0  0  0  0  0  0  0
  4.475898  3.283278  0.000000 C    0  0  0  0  0  0  0
  3.738288  2.913742  0.000000 C    0  0  0  0  0  0  0
  3.689511  2.090185  0.000000 C    0  0  0  0  0  0  0
  5.711970 -0.788792  0.000000 C    0  0  0  0  0  0  0
  6.449580 -0.419256  0.000000 C    0  0  0  0  0  0  0
  6.498357  0.404300  0.000000 C    0  0  0  0  0  0  0
  5.809524  0.858321  0.000000 C    0  0  0  0  0  0  0
 -0.239105  0.176705  0.000000 Rh   0  0  0  0  0  0  0
 -0.239105 -0.648295  0.000000 Cl   0  0  0  0  0  0  0
 -0.239105  1.001706  0.000000 C    0  0  0  0  0  0  0
 -0.239105  1.826706  0.000000 O    0  0  0  0  0  0  0
 -3.345899 -0.853273  0.000000 O    0  0  0  0  0  0  0
  3.370591  0.914479  0.000000 O    0  0  0  0  0  0  0
 -4.498319  1.347915  0.000000 C    0  0  0  0  0  0  0
  3.923933 -1.311052  0.000000 C    0  0  0  0  0  0  0
  1  2  1  0  0  0  0
  1  3  1  0  0  0  0
  3  4  2  0  0  0  0
  4  5  1  0  0  0  0
  5  6  2  0  0  0  0
  6  7  1  0  0  0  0
  7  8  2  0  0  0  0
  8  3  1  0  0  0  0
  2  9  2  0  0  0  0
  9 10  1  0  0  0  0
 10 11  2  0  0  0  0
 11 12  1  0  0  0  0
 12 13  2  0  0  0  0
 13  2  1  0  0  0  0
  1 14  1  0  0  0  0
 14 15  2  0  0  0  0
 15 16  1  0  0  0  0
 16 17  2  0  0  0  0
 17 18  1  0  0  0  0
 18 14  1  0  0  0  0
 18 19  1  0  0  0  0
 19 20  2  0  0  0  0
 20 21  1  0  0  0  0
 21 22  2  0  0  0  0
 22 23  1  0  0  0  0
 23 24  2  0  0  0  0
 24 19  1  0  0  0  0
 16 25  1  0  0  0  0
 25 26  2  0  0  0  0
 26 27  1  0  0  0  0
 27 28  2  0  0  0  0
 28 17  1  0  0  0  0
 29 30  1  0  0  0  0
 29 31  1  0  0  0  0
 31 32  2  0  0  0  0
 32 33  1  0  0  0  0
 33 34  2  0  0  0  0
 34 35  1  0  0  0  0
 35 36  2  0  0  0  0
 36 31  1  0  0  0  0
 30 37  2  0  0  0  0
 37 38  1  0  0  0  0
 38 39  2  0  0  0  0
 39 40  1  0  0  0  0
 40 41  2  0  0  0  0
 41 30  1  0  0  0  0
 29 42  1  0  0  0  0
 42 43  2  0  0  0  0
 43 44  1  0  0  0  0
 44 45  2  0  0  0  0
 45 46  1  0  0  0  0
 46 42  1  0  0  0  0
 46 47  1  0  0  0  0
 47 48  2  0  0  0  0
 48 49  1  0  0  0  0
 49 50  2  0  0  0  0
 50 51  1  0  0  0  0
 51 52  2  0  0  0  0
 52 47  1  0  0  0  0
 44 53  1  0  0  0  0
 53 54  2  0  0  0  0
 54 55  1  0  0  0  0
 55 56  2  0  0  0  0
 56 45  1  0  0  0  0
 57 58  1  0  0  0  0
 57 59  1  0  0  0  0
 59 60  3  0  0  0  0
 57  1  1  0  0  0  0
 57 29  1  0  0  0  0
  1 61  2  0  0  0  0
 29 62  2  0  0  0  0
 15 63  1  0  0  0  0
 43 64  1  0  0  0  0
M  END
> <NMREDATA_VERSION>
1.1

> <NMREDATA_LEVEL>
0

> <NMREDATA_SOLVENT>
CD2Cl2

> <NMREDATA_FORMULA>
C53H46ClN4O3P2Rh

> <NMREDATA_SMILES>
[O]#C[Rh]([P](=O)(C1=N(C)c2c(N1c1ccccc1)cccc2)(c1ccccc1)c1ccccc1)([P](=O)(C1=N(C)c2c(N1c1ccccc1)cccc2)(c1ccccc1)c1ccccc1)Cl

> <NMREDATA_ASSIGNMENT>
Rh57, -364.00, 57

> <NMREDATA_1D_103Rh>
-364.00, L=Rh57

$$$$
RhMan0925_0142.mol
  ChemDraw12172514122D

M  V30 COUNTS 20 19 1 0 0
  0.000000  0.219851  0.000000 Rh   0  2  0  0  0  0  0
 -0.714471  0.632351  0.000000 O    0  0  0  0  0  0  0
  0.714471  0.632351  0.000000 O    0  0  0  0  0  0  0
  0.000000  1.044851  0.000000 O    0  0  0  0  0  0  0
  0.714471 -0.192649  0.000000 O    0  0  0  0  0  0  0
 -0.714471 -0.192649  0.000000 O    0  0  0  0  0  0  0
  1.428942  0.219851  0.000000 H    0  0  0  0  0  0  0
  1.511360 -0.406175  0.000000 H    0  0  0  0  0  0  0
  0.714471  1.457351  0.000000 H    0  0  0  0  0  0  0
  1.539471  0.632351  0.000000 H    0  0  0  0  0  0  0
  0.213526  1.841740  0.000000 H    0  0  0  0  0  0  0
 -0.412500  1.759322  0.000000 H    0  0  0  0  0  0  0
 -1.126971  1.346822  0.000000 H    0  0  0  0  0  0  0
 -1.511360  0.418825  0.000000 H    0  0  0  0  0  0  0
 -0.927997 -0.989538  0.000000 H    0  0  0  0  0  0  0
 -1.539471 -0.192649  0.000000 H    0  0  0  0  0  0  0
  0.000000 -0.605149  0.000000 O    0  0  0  0  0  0  0
  0.713946 -1.017346  0.000000 N    0  3  0  0  0  0  0
  1.427892 -0.605149  0.000000 O    0  0  0  0  0  0  0
  0.713946 -1.841740  0.000000 O    0  5  0  0  0  0  0
 18 19  2  0  0  0  0
 18 20  1  0  0  0  0
 17 18  1  0  0  0  0
  1 17  1  0  0  0  0
  1  2  1  0  0  0  0
  1  3  1  0  0  0  0
  1  4  1  0  0  0  0
  1  5  1  0  0  0  0
  1  6  1  0  0  0  0
  5  7  1  0  0  0  0
  5  8  1  0  0  0  0
  3  9  1  0  0  0  0
  3 10  1  0  0  0  0
  4 11  1  0  0  0  0
  4 12  1  0  0  0  0
  2 13  1  0  0  0  0
  2 14  1  0  0  0  0
  6 15  1  0  0  0  0
  6 16  1  0  0  0  0
M  END
> <NMREDATA_VERSION>
1.1

> <NMREDATA_LEVEL>
0

> <NMREDATA_SOLVENT>
H2O/HNO3

> <NMREDATA_TEMPERATURE>
303

> <NMREDATA_FORMULA>
H12NO8Rh

> <NMREDATA_SMILES>
ON(=O)O[Rh]([OH2])([OH2])([OH2])([OH2])[OH2]

> <NMREDATA_ASSIGNMENT>
Rh1, 9905.00, 1

> <NMREDATA_1D_103Rh>
9905.00, L=Rh1

$$$$

  ACD/LABS12172514212D

 21 20  0  0  0  0  0  0  0  0 12 V2000
   20.0235   -6.0232    0.0000 Rh   0  5  0  0  0  0  0  0  0  0  0  0
   18.8717   -5.3582    0.0000 O    0  0  0  0  0  0  0  0  0  0  0  0
   21.1753   -5.3582    0.0000 O    0  0  0  0  0  0  0  0  0  0  0  0
   20.0235   -4.6932    0.0000 O    0  0  0  0  0  0  0  0  0  0  0  0
   21.1753   -6.6882    0.0000 O    0  0  0  0  0  0  0  0  0  0  0  0
   22.3271   -6.0232    0.0000 H    0  0  0  0  0  0  0  0  0  0  0  0
   22.4600   -7.0324    0.0000 H    0  0  0  0  0  0  0  0  0  0  0  0
   21.1753   -4.0282    0.0000 H    0  0  0  0  0  0  0  0  0  0  0  0
   22.5053   -5.3582    0.0000 H    0  0  0  0  0  0  0  0  0  0  0  0
   20.3677   -3.4085    0.0000 H    0  0  0  0  0  0  0  0  0  0  0  0
   19.3585   -3.5414    0.0000 H    0  0  0  0  0  0  0  0  0  0  0  0
   18.2067   -4.2064    0.0000 H    0  0  0  0  0  0  0  0  0  0  0  0
   17.5870   -5.7024    0.0000 H    0  0  0  0  0  0  0  0  0  0  0  0
   18.8717   -6.6882    0.0000 O    0  0  0  0  0  0  0  0  0  0  0  0
   20.0235   -7.3532    0.0000 O    0  0  0  0  0  0  0  0  0  0  0  0
   18.8717   -8.0182    0.0000 N    0  3  0  0  0  0  0  0  0  0  0  0
   20.0235   -8.6832    0.0000 O    0  0  0  0  0  0  0  0  0  0  0  0
   17.7199   -8.6832    0.0000 O    0  5  0  0  0  0  0  0  0  0  0  0
   21.1753   -8.0182    0.0000 N    0  3  0  0  0  0  0  0  0  0  0  0
   22.3271   -7.3532    0.0000 O    0  0  0  0  0  0  0  0  0  0  0  0
   21.1753   -9.3482    0.0000 O    0  5  0  0  0  0  0  0  0  0  0  0
  1  2  1  0  0  0  0
  1  3  1  0  0  0  0
  1  4  1  0  0  0  0
  1  5  1  0  0  0  0
  5  6  1  0  0  0  0
  5  7  1  0  0  0  0
  3  8  1  0  0  0  0
  3  9  1  0  0  0  0
  4 10  1  0  0  0  0
  4 11  1  0  0  0  0
  2 12  1  0  0  0  0
  2 13  1  0  0  0  0
  1 14  1  0  0  0  0
  1 15  1  0  0  0  0
 16 17  2  0  0  0  0
 16 18  1  0  0  0  0
 14 16  1  0  0  0  0
 19 20  2  0  0  0  0
 19 21  1  0  0  0  0
 15 19  1  0  0  0  0
M  END
> <NMREDATA_VERSION>
1.1

> <NMREDATA_LEVEL>
0

> <NMREDATA_SOLVENT>
H2O/HNO3

> <NMREDATA_TEMPERATURE>
303

> <NMREDATA_FORMULA>
H12N2O10Rh

> <NMREDATA_SMILES>
ON(=O)O[Rh](ON(=O)O)([OH2])([OH2])([OH2])[OH2]

> <NMREDATA_ASSIGNMENT>
Rh1, 9933.00, 1

> <NMREDATA_1D_103Rh>
9933.00, L=Rh1

$$$$

  ACD/LABS12172514212D

 21 20  0  0  0  0  0  0  0  0 12 V2000
   19.8861   -5.4162    0.0000 Rh   0  5  0  0  0  0  0  0  0  0  0  0
   18.7343   -4.7512    0.0000 O    0  0  0  0  0  0  0  0  0  0  0  0
   21.0379   -4.7512    0.0000 O    0  0  0  0  0  0  0  0  0  0  0  0
   21.0379   -6.0812    0.0000 O    0  0  0  0  0  0  0  0  0  0  0  0
   18.7343   -6.0812    0.0000 O    0  0  0  0  0  0  0  0  0  0  0  0
   22.1897   -5.4162    0.0000 H    0  0  0  0  0  0  0  0  0  0  0  0
   22.3226   -6.4255    0.0000 H    0  0  0  0  0  0  0  0  0  0  0  0
   21.0379   -3.4212    0.0000 H    0  0  0  0  0  0  0  0  0  0  0  0
   22.3679   -4.7512    0.0000 H    0  0  0  0  0  0  0  0  0  0  0  0
   18.0693   -3.5994    0.0000 H    0  0  0  0  0  0  0  0  0  0  0  0
   17.4496   -5.0954    0.0000 H    0  0  0  0  0  0  0  0  0  0  0  0
   18.3900   -7.3659    0.0000 H    0  0  0  0  0  0  0  0  0  0  0  0
   17.4043   -6.0812    0.0000 H    0  0  0  0  0  0  0  0  0  0  0  0
   19.8861   -6.7462    0.0000 O    0  0  0  0  0  0  0  0  0  0  0  0
   19.8861   -4.0862    0.0000 O    0  0  0  0  0  0  0  0  0  0  0  0
   21.0379   -7.4112    0.0000 N    0  3  0  0  0  0  0  0  0  0  0  0
   22.1897   -6.7462    0.0000 O    0  0  0  0  0  0  0  0  0  0  0  0
   21.0379   -8.7412    0.0000 O    0  5  0  0  0  0  0  0  0  0  0  0
   18.7343   -3.4212    0.0000 N    0  3  0  0  0  0  0  0  0  0  0  0
   17.5825   -4.0862    0.0000 O    0  0  0  0  0  0  0  0  0  0  0  0
   18.7343   -2.0912    0.0000 O    0  5  0  0  0  0  0  0  0  0  0  0
  1  2  1  0  0  0  0
  1  3  1  0  0  0  0
  1  4  1  0  0  0  0
  1  5  1  0  0  0  0
  4  6  1  0  0  0  0
  4  7  1  0  0  0  0
  3  8  1  0  0  0  0
  3  9  1  0  0  0  0
  2 10  1  0  0  0  0
  2 11  1  0  0  0  0
  5 12  1  0  0  0  0
  5 13  1  0  0  0  0
  1 14  1  0  0  0  0
  1 15  1  0  0  0  0
 16 17  2  0  0  0  0
 16 18  1  0  0  0  0
 14 16  1  0  0  0  0
 19 20  2  0  0  0  0
 19 21  1  0  0  0  0
 15 19  1  0  0  0  0
M  END
> <NMREDATA_VERSION>
1.1

> <NMREDATA_LEVEL>
0

> <NMREDATA_SOLVENT>
H2O/HNO3

> <NMREDATA_TEMPERATURE>
303

> <NMREDATA_FORMULA>
H12N2O10Rh

> <NMREDATA_SMILES>
ON(=O)O[Rh](ON(=O)O)([OH2])([OH2])([OH2])[OH2]

> <NMREDATA_ASSIGNMENT>
Rh1, 9929.00, 1

> <NMREDATA_1D_103Rh>
9929.00, L=Rh1

$$$$
RhMan0925_0145.mol
  ChemDraw12172514202D

M  V30 COUNTS 22 21 3 0 0
 -0.315501  0.061805  0.000000 Rh   0  0  0  0  0  0  0
 -0.315501 -0.763195  0.000000 O    0  0  0  0  0  0  0
 -1.029973  0.474305  0.000000 O    0  0  0  0  0  0  0
 -0.315501  0.886805  0.000000 O    0  0  0  0  0  0  0
 -0.101976  1.683694  0.000000 H    0  0  0  0  0  0  0
 -0.728002  1.601276  0.000000 H    0  0  0  0  0  0  0
 -1.442473  1.188776  0.000000 H    0  0  0  0  0  0  0
 -1.826861  0.260780  0.000000 H    0  0  0  0  0  0  0
  0.267862 -1.346557  0.000000 H    0  0  0  0  0  0  0
 -0.728002 -1.477666  0.000000 H    0  0  0  0  0  0  0
  0.634047  0.645169  0.000000 O    0  0  0  0  0  0  0
  0.611535  1.469255  0.000000 N    0  3  0  0  0  0  0
 -0.113401  1.861802  0.000000 O    0  0  0  0  0  0  0
  1.313958  1.900795  0.000000 O    0  5  0  0  0  0  0
  0.398970 -0.350695  0.000000 O    0  0  0  0  0  0  0
  1.112915  0.061502  0.000000 N    0  3  0  0  0  0  0
  1.112915  0.885896  0.000000 O    0  0  0  0  0  0  0
  1.826861 -0.350695  0.000000 O    0  5  0  0  0  0  0
 -0.898865 -0.521557  0.000000 O    0  0  0  0  0  0  0
 -0.685496 -1.317861  0.000000 N    0  3  0  0  0  0  0
  0.110807 -1.531230  0.000000 O    0  0  0  0  0  0  0
 -1.268430 -1.900795  0.000000 O    0  5  0  0  0  0  0
 12 13  2  0  0  0  0
 12 14  1  0  0  0  0
 11 12  1  0  0  0  0
  1 11  1  0  0  0  0
 16 17  2  0  0  0  0
 16 18  1  0  0  0  0
 15 16  1  0  0  0  0
  1 15  1  0  0  0  0
 20 21  2  0  0  0  0
 20 22  1  0  0  0  0
 19 20  1  0  0  0  0
  1 19  1  0  0  0  0
  1  2  1  0  0  0  0
  1  3  1  0  0  0  0
  1  4  1  0  0  0  0
  4  5  1  0  0  0  0
  4  6  1  0  0  0  0
  3  7  1  0  0  0  0
  3  8  1  0  0  0  0
  2  9  1  0  0  0  0
  2 10  1  0  0  0  0
M  END
> <NMREDATA_VERSION>
1.1

> <NMREDATA_LEVEL>
0

> <NMREDATA_SOLVENT>
H2O/HNO3

> <NMREDATA_TEMPERATURE>
303

> <NMREDATA_FORMULA>
H12N3O12Rh

> <NMREDATA_SMILES>
ON(=O)O[Rh](ON(=O)O)(ON(=O)O)([OH2])([OH2])[OH2]

> <NMREDATA_ASSIGNMENT>
Rh1, 9971.00, 1

> <NMREDATA_1D_103Rh>
9971.00, L=Rh1

$$$$
RhMan0925_0146.mol
  ChemDraw12172514222D

M  V30 COUNTS 22 21 3 0 0
 -0.301445  0.111301  0.000000 Rh   0  0  0  0  0  0  0
 -1.015917  0.523801  0.000000 O    0  0  0  0  0  0  0
 -0.301445  0.936301  0.000000 O    0  0  0  0  0  0  0
 -1.015917 -0.301199  0.000000 O    0  0  0  0  0  0  0
 -0.087920  1.733190  0.000000 H    0  0  0  0  0  0  0
 -0.713946  1.650772  0.000000 H    0  0  0  0  0  0  0
 -1.428417  1.238272  0.000000 H    0  0  0  0  0  0  0
 -1.812805  0.310275  0.000000 H    0  0  0  0  0  0  0
 -1.229442 -1.098088  0.000000 H    0  0  0  0  0  0  0
 -1.840917 -0.301199  0.000000 H    0  0  0  0  0  0  0
  0.648103  0.694664  0.000000 O    0  0  0  0  0  0  0
  0.625591  1.518750  0.000000 N    0  3  0  0  0  0  0
 -0.099346  1.911297  0.000000 O    0  0  0  0  0  0  0
  1.328014  1.950290  0.000000 O    0  5  0  0  0  0  0
  0.413026 -0.301199  0.000000 O    0  0  0  0  0  0  0
  1.126971  0.110997  0.000000 N    0  3  0  0  0  0  0
  1.126971  0.935391  0.000000 O    0  0  0  0  0  0  0
  1.840917 -0.301199  0.000000 O    0  5  0  0  0  0  0
 -0.301445 -0.713699  0.000000 O    0  0  0  0  0  0  0
  0.412500 -1.125896  0.000000 N    0  3  0  0  0  0  0
  1.126446 -0.713699  0.000000 O    0  0  0  0  0  0  0
  0.412500 -1.950290  0.000000 O    0  5  0  0  0  0  0
 12 13  2  0  0  0  0
 12 14  1  0  0  0  0
 11 12  1  0  0  0  0
  1 11  1  0  0  0  0
 16 17  2  0  0  0  0
 16 18  1  0  0  0  0
 15 16  1  0  0  0  0
  1 15  1  0  0  0  0
 20 21  2  0  0  0  0
 20 22  1  0  0  0  0
 19 20  1  0  0  0  0
  1 19  1  0  0  0  0
  1  2  1  0  0  0  0
  1  3  1  0  0  0  0
  1  4  1  0  0  0  0
  3  5  1  0  0  0  0
  3  6  1  0  0  0  0
  2  7  1  0  0  0  0
  2  8  1  0  0  0  0
  4  9  1  0  0  0  0
  4 10  1  0  0  0  0
M  END
> <NMREDATA_VERSION>
1.1

> <NMREDATA_LEVEL>
0

> <NMREDATA_SOLVENT>
H2O/HNO3

> <NMREDATA_TEMPERATURE>
303

> <NMREDATA_FORMULA>
H12N3O12Rh

> <NMREDATA_SMILES>
ON(=O)O[Rh](ON(=O)O)(ON(=O)O)([OH2])([OH2])[OH2]

> <NMREDATA_ASSIGNMENT>
Rh1, 9981.00, 1

> <NMREDATA_1D_103Rh>
9981.00, L=Rh1

$$$$

  ACD/LABS12172514302D

 23 22  0  0  0  0  0  0  0  0 21 V2000
   19.4222   -5.2239    0.0000 Rh   0  5  0  0  0  0  0  0  0  0  0  0
   18.2703   -4.5589    0.0000 O    0  0  0  0  0  0  0  0  0  0  0  0
   17.6053   -3.4070    0.0000 H    0  0  0  0  0  0  0  0  0  0  0  0
   16.9857   -4.9031    0.0000 H    0  0  0  0  0  0  0  0  0  0  0  0
   20.5740   -5.8889    0.0000 O    0  0  0  0  0  0  0  0  0  0  0  0
   21.9040   -5.8889    0.0000 H    0  0  0  0  0  0  0  0  0  0  0  0
   21.8587   -6.2331    0.0000 H    0  0  0  0  0  0  0  0  0  0  0  0
   19.4222   -6.5539    0.0000 O    0  0  0  0  0  0  0  0  0  0  0  0
   18.2703   -5.8889    0.0000 O    0  0  0  0  0  0  0  0  0  0  0  0
   19.4222   -3.8939    0.0000 O    0  0  0  0  0  0  0  0  0  0  0  0
   20.9529   -4.2834    0.0000 O    0  0  0  0  0  0  0  0  0  0  0  0
   20.5740   -7.2189    0.0000 N    0  3  0  0  0  0  0  0  0  0  0  0
   21.7258   -6.5539    0.0000 O    0  0  0  0  0  0  0  0  0  0  0  0
   20.5740   -8.5489    0.0000 O    0  5  0  0  0  0  0  0  0  0  0  0
   18.2704   -7.2189    0.0000 N    0  3  0  0  0  0  0  0  0  0  0  0
   19.4222   -7.8839    0.0000 O    0  0  0  0  0  0  0  0  0  0  0  0
   17.1185   -7.8839    0.0000 O    0  5  0  0  0  0  0  0  0  0  0  0
   18.2703   -3.2289    0.0000 N    0  3  0  0  0  0  0  0  0  0  0  0
   17.1185   -3.8939    0.0000 O    0  0  0  0  0  0  0  0  0  0  0  0
   18.2703   -1.8989    0.0000 O    0  5  0  0  0  0  0  0  0  0  0  0
   20.9039   -2.4894    0.0000 N    0  3  0  0  0  0  0  0  0  0  0  0
   19.3258   -1.6348    0.0000 O    0  0  0  0  0  0  0  0  0  0  0  0
   22.4331   -1.5499    0.0000 O    0  5  0  0  0  0  0  0  0  0  0  0
  1  2  1  0  0  0  0
  2  3  1  0  0  0  0
  2  4  1  0  0  0  0
  1  5  1  0  0  0  0
  5  6  1  0  0  0  0
  5  7  1  0  0  0  0
  1  8  1  0  0  0  0
  1  9  1  0  0  0  0
  1 10  1  0  0  0  0
  1 11  1  0  0  0  0
 12 13  2  0  0  0  0
 12 14  1  0  0  0  0
  8 12  1  0  0  0  0
 15 16  2  0  0  0  0
 15 17  1  0  0  0  0
  9 15  1  0  0  0  0
 18 19  2  0  0  0  0
 18 20  1  0  0  0  0
 10 18  1  0  0  0  0
 21 22  2  0  0  0  0
 21 23  1  0  0  0  0
 11 21  1  0  0  0  0
M  END
> <NMREDATA_VERSION>
1.1

> <NMREDATA_LEVEL>
0

> <NMREDATA_SOLVENT>
H2O/HNO3

> <NMREDATA_TEMPERATURE>
303

> <NMREDATA_FORMULA>
H12N4O14Rh

> <NMREDATA_SMILES>
ON(=O)O[Rh](ON(=O)O)(ON(=O)O)(ON(=O)O)([OH2])[OH2]

> <NMREDATA_ASSIGNMENT>
Rh1, 10036.00, 1

> <NMREDATA_1D_103Rh>
10036.00, L=Rh1

$$$$
RhMan0925_0148.mol
  ChemDraw12172515142D

M  V30 COUNTS 23 22 4 0 0
 -0.315501  0.000000  0.000000 Rh   0  5  0  0  0  0  0
 -1.029973  0.412500  0.000000 O    0  0  0  0  0  0  0
 -1.442473  1.126971  0.000000 H    0  0  0  0  0  0  0
 -1.826861  0.198975  0.000000 H    0  0  0  0  0  0  0
 -1.029973 -0.412500  0.000000 O    0  0  0  0  0  0  0
 -1.243498 -1.209389  0.000000 H    0  0  0  0  0  0  0
 -1.744444 -0.825000  0.000000 H    0  0  0  0  0  0  0
 -0.315501  0.825000  0.000000 O    0  0  0  0  0  0  0
 -1.029447  1.237197  0.000000 N    0  3  0  0  0  0  0
 -1.743393  0.825000  0.000000 O    0  0  0  0  0  0  0
 -1.029447  2.061591  0.000000 O    0  5  0  0  0  0  0
  0.634047  0.583363  0.000000 O    0  0  0  0  0  0  0
  0.611535  1.407450  0.000000 N    0  3  0  0  0  0  0
 -0.113401  1.799996  0.000000 O    0  0  0  0  0  0  0
  1.313958  1.838989  0.000000 O    0  5  0  0  0  0  0
  0.398970 -0.412500  0.000000 O    0  0  0  0  0  0  0
  1.112915 -0.000303  0.000000 N    0  3  0  0  0  0  0
  1.112915  0.824091  0.000000 O    0  0  0  0  0  0  0
  1.826861 -0.412500  0.000000 O    0  5  0  0  0  0  0
 -0.315501 -0.825000  0.000000 O    0  0  0  0  0  0  0
  0.398444 -1.237197  0.000000 N    0  3  0  0  0  0  0
  1.112390 -0.825000  0.000000 O    0  0  0  0  0  0  0
  0.398444 -2.061591  0.000000 O    0  5  0  0  0  0  0
  9 10  2  0  0  0  0
  9 11  1  0  0  0  0
  8  9  1  0  0  0  0
  1  8  1  0  0  0  0
 13 14  2  0  0  0  0
 13 15  1  0  0  0  0
 12 13  1  0  0  0  0
  1 12  1  0  0  0  0
 17 18  2  0  0  0  0
 17 19  1  0  0  0  0
 16 17  1  0  0  0  0
  1 16  1  0  0  0  0
 21 22  2  0  0  0  0
 21 23  1  0  0  0  0
 20 21  1  0  0  0  0
  1 20  1  0  0  0  0
  1  2  1  0  0  0  0
  2  3  1  0  0  0  0
  2  4  1  0  0  0  0
  1  5  1  0  0  0  0
  5  6  1  0  0  0  0
  5  7  1  0  0  0  0
M  END
> <NMREDATA_VERSION>
1.1

> <NMREDATA_LEVEL>
0

> <NMREDATA_SOLVENT>
H2O/HNO3

> <NMREDATA_TEMPERATURE>
303

> <NMREDATA_FORMULA>
H12N4O14Rh

> <NMREDATA_SMILES>
ON(=O)O[Rh](ON(=O)O)(ON(=O)O)(ON(=O)O)([OH2])[OH2]

> <NMREDATA_ASSIGNMENT>
Rh1, 10022.00, 1

> <NMREDATA_1D_103Rh>
10022.00, L=Rh1

$$$$
RhMan0925_0149.mol
  ChemDraw12172515202D

M  V30 COUNTS 36 41 0 0 0
 -0.496835  0.397319  0.000000 Rh   0  0  0  0  0  0  0
 -2.652314  0.809819  0.000000 C    0  0  0  0  0  0  0
 -2.652314 -0.015181  0.000000 C    0  0  0  0  0  0  0
 -1.867692 -0.270119  0.000000 C    0  0  0  0  0  0  0
 -1.382769  0.397319  0.000000 C    0  0  0  0  0  0  0
 -1.867692  1.064759  0.000000 C    0  0  0  0  0  0  0
 -1.810427  1.887769  0.000000 C    0  0  0  0  0  0  0
 -1.008227  1.132400  0.000000 C    0  0  0  0  0  0  0
 -1.810427 -1.093130  0.000000 C    0  0  0  0  0  0  0
 -3.319753 -0.500103  0.000000 C    0  0  0  0  0  0  0
 -3.319753  1.294742  0.000000 C    0  0  0  0  0  0  0
 -0.283309  1.194208  0.000000 Si   0  0  0  0  0  0  0
 -0.866672  1.777572  0.000000 C    0  0  0  0  0  0  0
 -0.653147  2.574460  0.000000 C    0  0  0  0  0  0  0
  0.513580  1.407735  0.000000 C    0  0  0  0  0  0  0
  1.096943  0.824371  0.000000 C    0  0  0  0  0  0  0
 -0.069783  1.991097  0.000000 C    0  0  0  0  0  0  0
  0.727106  2.204623  0.000000 C    0  0  0  0  0  0  0
 -0.496835 -0.427681  0.000000 H    0  0  0  0  0  0  0
  0.508774  0.428858  0.000000 H    0  0  0  0  0  0  0
  0.086528 -0.186043  0.000000 Al   0  0  0  0  0  0  0
  0.333665 -1.336960  0.000000 N    0  0  0  0  0  0  0
  1.725975 -1.312534  0.000000 N    0  0  0  0  0  0  0
  0.333665 -2.161960  0.000000 C    0  0  0  0  0  0  0
  1.725975 -2.137534  0.000000 C    0  0  0  0  0  0  0
  1.048136 -2.574460  0.000000 C    0  0  0  0  0  0  0
  2.450329 -2.532421  0.000000 C    0  0  0  0  0  0  0
 -0.380806 -2.574460  0.000000 C    0  0  0  0  0  0  0
 -0.463224 -1.550486  0.000000 S    0  0  0  0  0  0  0
  2.522864 -1.526060  0.000000 S    0  0  0  0  0  0  0
 -1.046586 -0.967123  0.000000 O    0  0  0  0  0  0  0
 -0.676749 -2.347375  0.000000 O    0  0  0  0  0  0  0
  3.106227 -0.942697  0.000000 O    0  0  0  0  0  0  0
  2.736390 -2.322949  0.000000 O    0  0  0  0  0  0  0
  3.319753 -1.739586  0.000000 C    0  0  0  0  0  0  0
 -1.177695 -1.962986  0.000000 C    0  0  0  0  0  0  0
  2  3  1  0  0  0  0
  3  4  1  0  0  0  0
  4  5  1  0  0  0  0
  5  6  1  0  0  0  0
  6  2  1  0  0  0  0
  1  5  1  0  0  0  0
  1  4  1  0  0  0  0
  1  3  1  0  0  0  0
  1  2  1  0  0  0  0
  1  6  1  0  0  0  0
  6  7  1  0  0  0  0
  5  8  1  0  0  0  0
  4  9  1  0  0  0  0
  3 10  1  0  0  0  0
  2 11  1  0  0  0  0
  1 12  1  0  0  0  0
 12 13  1  0  0  0  0
 13 14  1  0  0  0  0
 12 15  1  0  0  0  0
 15 16  1  0  0  0  0
 12 17  1  0  0  0  0
 17 18  1  0  0  0  0
  1 19  1  0  0  0  0
  1 20  1  0  0  0  0
  1 21  1  0  0  0  0
 22 24  1  0  0  0  0
 23 25  1  0  0  0  0
 24 26  4  0  0  0  0
 25 26  4  0  0  0  0
 22 21  1  0  0  0  0
 23 21  1  0  0  0  0
 25 27  1  0  0  0  0
 24 28  1  0  0  0  0
 22 29  1  0  0  0  0
 23 30  1  0  0  0  0
 29 31  2  0  0  0  0
 29 32  2  0  0  0  0
 30 33  2  0  0  0  0
 30 34  2  0  0  0  0
 30 35  1  0  0  0  0
 29 36  1  0  0  0  0
M  END
> <NMREDATA_VERSION>
1.1

> <NMREDATA_LEVEL>
0

> <NMREDATA_SOLVENT>
C6D6

> <NMREDATA_TEMPERATURE>
303

> <NMREDATA_FORMULA>
C23H46AlN2O4RhS2Si

> <NMREDATA_SMILES>
CC[Si]([RhH2]1234([Al]5N(C(C)C=C(N5S(=O)(=O)C)C)S(=O)(=O)C)C5(C3(C2(C1(C45C)C)C)C)C)(CC)CC

> <NMREDATA_ASSIGNMENT>
Rh1, 6799.00, 1

> <NMREDATA_1D_103Rh>
6799.00, L=Rh1

$$$$
RhMan0925_0150.mol
  ChemDraw12172515242D

M  V30 COUNTS 52 59 0 0 0
 -1.490189  1.096197  0.000000 Rh   0  0  0  0  0  0  0
 -3.645668  1.508697  0.000000 C    0  0  0  0  0  0  0
 -3.645668  0.683697  0.000000 C    0  0  0  0  0  0  0
 -2.861046  0.428759  0.000000 C    0  0  0  0  0  0  0
 -2.376123  1.096197  0.000000 C    0  0  0  0  0  0  0
 -2.861046  1.763637  0.000000 C    0  0  0  0  0  0  0
 -2.803781  2.586647  0.000000 C    0  0  0  0  0  0  0
 -2.001581  1.831278  0.000000 C    0  0  0  0  0  0  0
 -2.803781 -0.394252  0.000000 C    0  0  0  0  0  0  0
 -4.313107  0.198775  0.000000 C    0  0  0  0  0  0  0
 -4.313107  1.993620  0.000000 C    0  0  0  0  0  0  0
 -1.276663  1.893086  0.000000 Si   0  0  0  0  0  0  0
 -1.860026  2.476450  0.000000 C    0  0  0  0  0  0  0
 -1.646501  3.273338  0.000000 C    0  0  0  0  0  0  0
 -0.479774  2.106612  0.000000 C    0  0  0  0  0  0  0
  0.103589  1.523249  0.000000 C    0  0  0  0  0  0  0
 -1.063137  2.689975  0.000000 C    0  0  0  0  0  0  0
 -0.266248  2.903501  0.000000 C    0  0  0  0  0  0  0
 -1.490189  0.271197  0.000000 H    0  0  0  0  0  0  0
 -0.484581  1.127736  0.000000 H    0  0  0  0  0  0  0
 -0.906826  0.512835  0.000000 Zn   0  0  0  0  0  0  0
 -0.671902 -0.564803  0.000000 N    0  0  0  0  0  0  0
  0.732621 -0.613656  0.000000 N    0  0  0  0  0  0  0
 -0.659689 -1.463082  0.000000 C    0  0  0  0  0  0  0
  0.732621 -1.438656  0.000000 C    0  0  0  0  0  0  0
  0.054782 -1.875582  0.000000 C    0  0  0  0  0  0  0
  1.456975 -1.833543  0.000000 C    0  0  0  0  0  0  0
 -1.374160 -1.875582  0.000000 C    0  0  0  0  0  0  0
  2.799687 -0.680623  0.000000 C    0  0  0  0  0  0  0
 -2.368196 -1.105948  0.000000 C    0  0  0  0  0  0  0
  3.188835 -1.408076  0.000000 C    0  0  0  0  0  0  0
  4.013403 -1.434789  0.000000 C    0  0  0  0  0  0  0
  4.448822 -0.734050  0.000000 C    0  0  0  0  0  0  0
  4.059672 -0.006597  0.000000 C    0  0  0  0  0  0  0
  3.235105  0.020117  0.000000 C    0  0  0  0  0  0  0
 -2.978328 -0.550644  0.000000 C    0  0  0  0  0  0  0
 -3.764302 -0.801383  0.000000 C    0  0  0  0  0  0  0
 -3.940143 -1.607425  0.000000 C    0  0  0  0  0  0  0
 -3.330011 -2.162730  0.000000 C    0  0  0  0  0  0  0
 -2.544037 -1.911991  0.000000 C    0  0  0  0  0  0  0
 -1.933903 -2.467295  0.000000 C    0  0  0  0  0  0  0
 -1.147930 -2.216557  0.000000 C    0  0  0  0  0  0  0
 -2.109745 -3.273338  0.000000 C    0  0  0  0  0  0  0
 -3.651933 -0.076274  0.000000 C    0  0  0  0  0  0  0
 -4.358580 -0.920481  0.000000 C    0  0  0  0  0  0  0
 -4.448822 -0.289799  0.000000 C    0  0  0  0  0  0  0
  2.845956  0.747570  0.000000 C    0  0  0  0  0  0  0
  3.281374  1.448310  0.000000 C    0  0  0  0  0  0  0
  2.021389  0.774284  0.000000 C    0  0  0  0  0  0  0
  2.753418 -2.108815  0.000000 C    0  0  0  0  0  0  0
  3.142566 -2.836269  0.000000 C    0  0  0  0  0  0  0
  1.928850 -2.082102  0.000000 C    0  0  0  0  0  0  0
  2  3  1  0  0  0  0
  3  4  1  0  0  0  0
  4  5  1  0  0  0  0
  5  6  1  0  0  0  0
  6  2  1  0  0  0  0
  1  5  1  0  0  0  0
  1  4  1  0  0  0  0
  1  3  1  0  0  0  0
  1  2  1  0  0  0  0
  1  6  1  0  0  0  0
  6  7  1  0  0  0  0
  5  8  1  0  0  0  0
  4  9  1  0  0  0  0
  3 10  1  0  0  0  0
  2 11  1  0  0  0  0
  1 12  1  0  0  0  0
 12 13  1  0  0  0  0
 13 14  1  0  0  0  0
 12 15  1  0  0  0  0
 15 16  1  0  0  0  0
 12 17  1  0  0  0  0
 17 18  1  0  0  0  0
  1 19  1  0  0  0  0
  1 20  1  0  0  0  0
  1 21  1  0  0  0  0
 22 24  1  0  0  0  0
 23 25  1  0  0  0  0
 24 26  4  0  0  0  0
 25 26  4  0  0  0  0
 22 21  1  0  0  0  0
 23 21  1  0  0  0  0
 25 27  1  0  0  0  0
 24 28  1  0  0  0  0
 23 29  1  0  0  0  0
 22 30  1  0  0  0  0
 29 31  2  0  0  0  0
 31 32  1  0  0  0  0
 32 33  2  0  0  0  0
 33 34  1  0  0  0  0
 34 35  2  0  0  0  0
 35 29  1  0  0  0  0
 30 36  2  0  0  0  0
 36 37  1  0  0  0  0
 37 38  2  0  0  0  0
 38 39  1  0  0  0  0
 39 40  2  0  0  0  0
 40 30  1  0  0  0  0
 40 41  1  0  0  0  0
 41 42  1  0  0  0  0
 41 43  1  0  0  0  0
 36 44  1  0  0  0  0
 44 45  1  0  0  0  0
 44 46  1  0  0  0  0
 35 47  1  0  0  0  0
 47 48  1  0  0  0  0
 47 49  1  0  0  0  0
 31 50  1  0  0  0  0
 50 51  1  0  0  0  0
 50 52  1  0  0  0  0
M  END
> <NMREDATA_VERSION>
1.1

> <NMREDATA_LEVEL>
0

> <NMREDATA_SOLVENT>
C6D6

> <NMREDATA_TEMPERATURE>
303

> <NMREDATA_FORMULA>
C45H74N2RhSiZn

> <NMREDATA_SMILES>
CC[Si]([RhH2]1234([Zn]5N(C(C)C=C(N5c5c(cccc5C(C)C)C(C)C)C)c5c(cccc5C(C)C)C(C)C)C5(C3(C2(C1(C45C)C)C)C)C)(CC)CC

> <NMREDATA_ASSIGNMENT>
Rh1, 6626.00, 1

> <NMREDATA_1D_103Rh>
6626.00, L=Rh1

$$$$
RhMan0925_0151.mol
  ChemDraw12172515252D

M  V30 COUNTS 52 59 0 0 0
 -1.490189  1.096197  0.000000 Rh   0  0  0  0  0  0  0
 -3.645668  1.508697  0.000000 C    0  0  0  0  0  0  0
 -3.645668  0.683697  0.000000 C    0  0  0  0  0  0  0
 -2.861046  0.428759  0.000000 C    0  0  0  0  0  0  0
 -2.376123  1.096197  0.000000 C    0  0  0  0  0  0  0
 -2.861046  1.763637  0.000000 C    0  0  0  0  0  0  0
 -2.803781  2.586647  0.000000 C    0  0  0  0  0  0  0
 -2.001581  1.831278  0.000000 C    0  0  0  0  0  0  0
 -2.803781 -0.394252  0.000000 C    0  0  0  0  0  0  0
 -4.313107  0.198775  0.000000 C    0  0  0  0  0  0  0
 -4.313107  1.993620  0.000000 C    0  0  0  0  0  0  0
 -1.276663  1.893086  0.000000 Si   0  0  0  0  0  0  0
 -1.860026  2.476450  0.000000 C    0  0  0  0  0  0  0
 -1.646501  3.273338  0.000000 C    0  0  0  0  0  0  0
 -0.479774  2.106612  0.000000 C    0  0  0  0  0  0  0
  0.103589  1.523249  0.000000 C    0  0  0  0  0  0  0
 -1.063137  2.689975  0.000000 C    0  0  0  0  0  0  0
 -0.266248  2.903501  0.000000 C    0  0  0  0  0  0  0
 -1.490189  0.271197  0.000000 H    0  0  0  0  0  0  0
 -0.484581  1.127736  0.000000 H    0  0  0  0  0  0  0
 -0.906826  0.512835  0.000000 Mg   0  0  0  0  0  0  0
 -0.671902 -0.564803  0.000000 N    0  0  0  0  0  0  0
  0.732621 -0.613656  0.000000 N    0  0  0  0  0  0  0
 -0.659689 -1.463082  0.000000 C    0  0  0  0  0  0  0
  0.732621 -1.438656  0.000000 C    0  0  0  0  0  0  0
  0.054782 -1.875582  0.000000 C    0  0  0  0  0  0  0
  1.456975 -1.833543  0.000000 C    0  0  0  0  0  0  0
 -1.374160 -1.875582  0.000000 C    0  0  0  0  0  0  0
  2.799687 -0.680623  0.000000 C    0  0  0  0  0  0  0
 -2.368196 -1.105948  0.000000 C    0  0  0  0  0  0  0
  3.188835 -1.408076  0.000000 C    0  0  0  0  0  0  0
  4.013403 -1.434789  0.000000 C    0  0  0  0  0  0  0
  4.448822 -0.734050  0.000000 C    0  0  0  0  0  0  0
  4.059672 -0.006597  0.000000 C    0  0  0  0  0  0  0
  3.235105  0.020117  0.000000 C    0  0  0  0  0  0  0
 -2.978328 -0.550644  0.000000 C    0  0  0  0  0  0  0
 -3.764302 -0.801383  0.000000 C    0  0  0  0  0  0  0
 -3.940143 -1.607425  0.000000 C    0  0  0  0  0  0  0
 -3.330011 -2.162730  0.000000 C    0  0  0  0  0  0  0
 -2.544037 -1.911991  0.000000 C    0  0  0  0  0  0  0
 -1.933903 -2.467295  0.000000 C    0  0  0  0  0  0  0
 -1.147930 -2.216557  0.000000 C    0  0  0  0  0  0  0
 -2.109745 -3.273338  0.000000 C    0  0  0  0  0  0  0
 -3.651933 -0.076274  0.000000 C    0  0  0  0  0  0  0
 -4.358580 -0.920481  0.000000 C    0  0  0  0  0  0  0
 -4.448822 -0.289799  0.000000 C    0  0  0  0  0  0  0
  2.845956  0.747570  0.000000 C    0  0  0  0  0  0  0
  3.281374  1.448310  0.000000 C    0  0  0  0  0  0  0
  2.021389  0.774284  0.000000 C    0  0  0  0  0  0  0
  2.753418 -2.108815  0.000000 C    0  0  0  0  0  0  0
  3.142566 -2.836269  0.000000 C    0  0  0  0  0  0  0
  1.928850 -2.082102  0.000000 C    0  0  0  0  0  0  0
  2  3  1  0  0  0  0
  3  4  1  0  0  0  0
  4  5  1  0  0  0  0
  5  6  1  0  0  0  0
  6  2  1  0  0  0  0
  1  5  1  0  0  0  0
  1  4  1  0  0  0  0
  1  3  1  0  0  0  0
  1  2  1  0  0  0  0
  1  6  1  0  0  0  0
  6  7  1  0  0  0  0
  5  8  1  0  0  0  0
  4  9  1  0  0  0  0
  3 10  1  0  0  0  0
  2 11  1  0  0  0  0
  1 12  1  0  0  0  0
 12 13  1  0  0  0  0
 13 14  1  0  0  0  0
 12 15  1  0  0  0  0
 15 16  1  0  0  0  0
 12 17  1  0  0  0  0
 17 18  1  0  0  0  0
  1 19  1  0  0  0  0
  1 20  1  0  0  0  0
  1 21  1  0  0  0  0
 22 24  1  0  0  0  0
 23 25  1  0  0  0  0
 24 26  4  0  0  0  0
 25 26  4  0  0  0  0
 22 21  1  0  0  0  0
 23 21  1  0  0  0  0
 25 27  1  0  0  0  0
 24 28  1  0  0  0  0
 23 29  1  0  0  0  0
 22 30  1  0  0  0  0
 29 31  2  0  0  0  0
 31 32  1  0  0  0  0
 32 33  2  0  0  0  0
 33 34  1  0  0  0  0
 34 35  2  0  0  0  0
 35 29  1  0  0  0  0
 30 36  2  0  0  0  0
 36 37  1  0  0  0  0
 37 38  2  0  0  0  0
 38 39  1  0  0  0  0
 39 40  2  0  0  0  0
 40 30  1  0  0  0  0
 40 41  1  0  0  0  0
 41 42  1  0  0  0  0
 41 43  1  0  0  0  0
 36 44  1  0  0  0  0
 44 45  1  0  0  0  0
 44 46  1  0  0  0  0
 35 47  1  0  0  0  0
 47 48  1  0  0  0  0
 47 49  1  0  0  0  0
 31 50  1  0  0  0  0
 50 51  1  0  0  0  0
 50 52  1  0  0  0  0
M  END
> <NMREDATA_VERSION>
1.1

> <NMREDATA_LEVEL>
0

> <NMREDATA_SOLVENT>
C6D6

> <NMREDATA_TEMPERATURE>
303

> <NMREDATA_FORMULA>
C45H74MgN2RhSi

> <NMREDATA_SMILES>
CC[Si]([RhH2]1234([Mg]5N(C(C)C=C(N5c5c(cccc5C(C)C)C(C)C)C)c5c(cccc5C(C)C)C(C)C)C5(C3(C2(C1(C45C)C)C)C)C)(CC)CC

> <NMREDATA_ASSIGNMENT>
Rh1, 6829.00, 1

> <NMREDATA_1D_103Rh>
6829.00, L=Rh1

$$$$
RhMan0925_0153.mol
  ChemDraw12172515492D

 49 56  0  0  0  0  0  0  0  0999 V2000
   -1.2823    0.2200    0.0000 Rh   0  0  0  0  0  0  0  0  0  0  0  0
   -0.5678    0.6325    0.0000 H    0  0  0  0  0  0  0  0  0  0  0  0
   -0.4573    0.2200    0.0000 H    0  0  0  0  0  0  0  0  0  0  0  0
   -1.3067    1.7535    0.0000 P    0  0  0  0  0  0  0  0  0  0  0  0
    1.3075   -1.7534    0.0000 P    0  0  0  0  0  0  0  0  0  0  0  0
   -0.4817    1.7535    0.0000 C    0  0  0  0  0  0  0  0  0  0  0  0
   -2.1317    1.7535    0.0000 C    0  0  0  0  0  0  0  0  0  0  0  0
   -1.3199    2.5784    0.0000 C    0  0  0  0  0  0  0  0  0  0  0  0
   -0.6023    2.9854    0.0000 C    0  0  0  0  0  0  0  0  0  0  0  0
   -0.6023    3.8104    0.0000 C    0  0  0  0  0  0  0  0  0  0  0  0
   -1.3199    4.2284    0.0000 C    0  0  0  0  0  0  0  0  0  0  0  0
   -2.0375    3.8104    0.0000 C    0  0  0  0  0  0  0  0  0  0  0  0
   -2.0375    2.9854    0.0000 C    0  0  0  0  0  0  0  0  0  0  0  0
   -0.0692    1.0390    0.0000 C    0  0  0  0  0  0  0  0  0  0  0  0
    0.7558    1.0390    0.0000 C    0  0  0  0  0  0  0  0  0  0  0  0
    1.1683    1.7535    0.0000 C    0  0  0  0  0  0  0  0  0  0  0  0
    0.7558    2.4680    0.0000 C    0  0  0  0  0  0  0  0  0  0  0  0
   -0.0692    2.4680    0.0000 C    0  0  0  0  0  0  0  0  0  0  0  0
   -2.5442    2.4680    0.0000 C    0  0  0  0  0  0  0  0  0  0  0  0
   -3.3692    2.4680    0.0000 C    0  0  0  0  0  0  0  0  0  0  0  0
   -3.7817    1.7535    0.0000 C    0  0  0  0  0  0  0  0  0  0  0  0
   -3.3692    1.0390    0.0000 C    0  0  0  0  0  0  0  0  0  0  0  0
   -2.5442    1.0390    0.0000 C    0  0  0  0  0  0  0  0  0  0  0  0
    2.1325   -1.7534    0.0000 C    0  0  0  0  0  0  0  0  0  0  0  0
    1.3075   -2.5784    0.0000 C    0  0  0  0  0  0  0  0  0  0  0  0
    0.4825   -1.7534    0.0000 C    0  0  0  0  0  0  0  0  0  0  0  0
    0.0700   -1.0389    0.0000 C    0  0  0  0  0  0  0  0  0  0  0  0
   -0.7550   -1.0389    0.0000 C    0  0  0  0  0  0  0  0  0  0  0  0
   -1.1675   -1.7534    0.0000 C    0  0  0  0  0  0  0  0  0  0  0  0
   -0.7550   -2.4678    0.0000 C    0  0  0  0  0  0  0  0  0  0  0  0
    0.0700   -2.4678    0.0000 C    0  0  0  0  0  0  0  0  0  0  0  0
    0.5931   -2.9909    0.0000 C    0  0  0  0  0  0  0  0  0  0  0  0
    0.5931   -3.8159    0.0000 C    0  0  0  0  0  0  0  0  0  0  0  0
    1.3075   -4.2284    0.0000 C    0  0  0  0  0  0  0  0  0  0  0  0
    2.0220   -3.8159    0.0000 C    0  0  0  0  0  0  0  0  0  0  0  0
    2.0220   -2.9909    0.0000 C    0  0  0  0  0  0  0  0  0  0  0  0
    2.5450   -2.4678    0.0000 C    0  0  0  0  0  0  0  0  0  0  0  0
    3.3700   -2.4678    0.0000 C    0  0  0  0  0  0  0  0  0  0  0  0
    3.7825   -1.7534    0.0000 C    0  0  0  0  0  0  0  0  0  0  0  0
    3.3700   -1.0389    0.0000 C    0  0  0  0  0  0  0  0  0  0  0  0
    2.5450   -1.0389    0.0000 C    0  0  0  0  0  0  0  0  0  0  0  0
   -2.3625    0.6325    0.0000 O    0  0  0  0  0  0  0  0  0  0  0  0
   -2.9756    0.0804    0.0000 C    0  0  0  0  0  0  0  0  0  0  0  0
   -2.6400   -0.6732    0.0000 C    0  0  0  0  0  0  0  0  0  0  0  0
   -1.8195   -0.5870    0.0000 N    0  0  0  0  0  0  0  0  0  0  0  0
   -3.7825    0.2520    0.0000 O    0  0  0  0  0  0  0  0  0  0  0  0
   -2.8115   -1.4802    0.0000 C    0  0  0  0  0  0  0  0  0  0  0  0
   -2.0971   -1.8927    0.0000 S    0  0  0  0  0  0  0  0  0  0  0  0
   -1.4840   -1.3407    0.0000 C    0  0  0  0  0  0  0  0  0  0  0  0
  1  2  1  0  0
  1  3  1  0  0
  1  4  1  0  0
  1  5  1  0  0
  4  6  1  0  0
  4  7  1  0  0
  4  8  1  0  0
  8  9  2  0  0
  9 10  1  0  0
 10 11  2  0  0
 11 12  1  0  0
 12 13  2  0  0
 13  8  1  0  0
  6 14  2  0  0
 14 15  1  0  0
 15 16  2  0  0
 16 17  1  0  0
 17 18  2  0  0
 18  6  1  0  0
  7 19  2  0  0
 19 20  1  0  0
 20 21  2  0  0
 21 22  1  0  0
 22 23  2  0  0
 23  7  1  0  0
  5 24  1  0  0
  5 25  1  0  0
  5 26  1  0  0
 26 27  2  0  0
 27 28  1  0  0
 28 29  2  0  0
 29 30  1  0  0
 30 31  2  0  0
 31 26  1  0  0
 25 32  2  0  0
 32 33  1  0  0
 33 34  2  0  0
 34 35  1  0  0
 35 36  2  0  0
 36 25  1  0  0
 24 37  2  0  0
 37 38  1  0  0
 38 39  2  0  0
 39 40  1  0  0
 40 41  2  0  0
 41 24  1  0  0
  1 42  1  0  0
 42 43  1  0  0
 43 44  1  0  0
 44 45  1  0  0
 45  1  1  0  0
 43 46  2  0  0
 44 47  2  0  0
 47 48  1  0  0
 48 49  1  0  0
 49 45  2  0  0
M  END
> <NMREDATA_VERSION>
1.1

> <NMREDATA_LEVEL>
0

> <NMREDATA_SOLVENT>
CD3OD/THF

> <NMREDATA_TEMPERATURE>
300

> <NMREDATA_FORMULA>
C40H37NO2P2RhS

> <NMREDATA_SMILES>
O=C1O[RhH2](N2=CSC=C12)(P(c1ccccc1)(c1ccccc1)c1ccccc1)P(c1ccccc1)(c1ccccc1)c1ccccc1

> <NMREDATA_ASSIGNMENT>
Rh1, 509.00, 1

> <NMREDATA_1D_103Rh>
509.00, L=Rh1

$$$$
RhMan0925_0154.mol
  ChemDraw12172515542D

 86 97  0  0  0  0  0  0  0  0999 V2000
   -4.2236    2.5950    0.0000 Rh   0  0  0  0  0  0  0  0  0  0  0  0
   -3.5091    3.0075    0.0000 H    0  0  0  0  0  0  0  0  0  0  0  0
   -3.3986    2.5950    0.0000 H    0  0  0  0  0  0  0  0  0  0  0  0
   -4.2480    4.1285    0.0000 P    0  0  0  0  0  0  0  0  0  0  0  0
   -1.1207    1.2080    0.0000 P    0  0  0  0  0  0  0  0  0  0  0  0
   -3.4230    4.1285    0.0000 C    0  0  0  0  0  0  0  0  0  0  0  0
   -5.0730    4.1285    0.0000 C    0  0  0  0  0  0  0  0  0  0  0  0
   -4.2611    4.9534    0.0000 C    0  0  0  0  0  0  0  0  0  0  0  0
   -3.5435    5.3604    0.0000 C    0  0  0  0  0  0  0  0  0  0  0  0
   -3.5435    6.1854    0.0000 C    0  0  0  0  0  0  0  0  0  0  0  0
   -4.2611    6.6034    0.0000 C    0  0  0  0  0  0  0  0  0  0  0  0
   -4.9787    6.1854    0.0000 C    0  0  0  0  0  0  0  0  0  0  0  0
   -4.9787    5.3604    0.0000 C    0  0  0  0  0  0  0  0  0  0  0  0
   -3.0105    3.4141    0.0000 C    0  0  0  0  0  0  0  0  0  0  0  0
   -2.1855    3.4141    0.0000 C    0  0  0  0  0  0  0  0  0  0  0  0
   -1.7730    4.1285    0.0000 C    0  0  0  0  0  0  0  0  0  0  0  0
   -2.1855    4.8430    0.0000 C    0  0  0  0  0  0  0  0  0  0  0  0
   -3.0105    4.8430    0.0000 C    0  0  0  0  0  0  0  0  0  0  0  0
   -5.4855    4.8430    0.0000 C    0  0  0  0  0  0  0  0  0  0  0  0
   -6.3105    4.8430    0.0000 C    0  0  0  0  0  0  0  0  0  0  0  0
   -6.7230    4.1285    0.0000 C    0  0  0  0  0  0  0  0  0  0  0  0
   -6.3105    3.4141    0.0000 C    0  0  0  0  0  0  0  0  0  0  0  0
   -5.4855    3.4141    0.0000 C    0  0  0  0  0  0  0  0  0  0  0  0
   -0.2957    1.2080    0.0000 C    0  0  0  0  0  0  0  0  0  0  0  0
   -1.1207    0.3830    0.0000 C    0  0  0  0  0  0  0  0  0  0  0  0
   -1.9457    1.2080    0.0000 C    0  0  0  0  0  0  0  0  0  0  0  0
   -2.3582    1.9225    0.0000 C    0  0  0  0  0  0  0  0  0  0  0  0
   -3.1832    1.9225    0.0000 C    0  0  0  0  0  0  0  0  0  0  0  0
   -3.5957    1.2080    0.0000 C    0  0  0  0  0  0  0  0  0  0  0  0
   -3.1832    0.4936    0.0000 C    0  0  0  0  0  0  0  0  0  0  0  0
   -2.3582    0.4936    0.0000 C    0  0  0  0  0  0  0  0  0  0  0  0
   -1.8351   -0.0295    0.0000 C    0  0  0  0  0  0  0  0  0  0  0  0
   -1.8351   -0.8545    0.0000 C    0  0  0  0  0  0  0  0  0  0  0  0
   -1.1207   -1.2670    0.0000 C    0  0  0  0  0  0  0  0  0  0  0  0
   -0.4062   -0.8545    0.0000 C    0  0  0  0  0  0  0  0  0  0  0  0
   -0.4062   -0.0295    0.0000 C    0  0  0  0  0  0  0  0  0  0  0  0
    0.1168    0.4936    0.0000 C    0  0  0  0  0  0  0  0  0  0  0  0
    0.9418    0.4936    0.0000 C    0  0  0  0  0  0  0  0  0  0  0  0
    1.3543    1.2080    0.0000 C    0  0  0  0  0  0  0  0  0  0  0  0
    0.9418    1.9225    0.0000 C    0  0  0  0  0  0  0  0  0  0  0  0
    0.1168    1.9225    0.0000 C    0  0  0  0  0  0  0  0  0  0  0  0
   -5.3037    3.0075    0.0000 O    0  0  0  0  0  0  0  0  0  0  0  0
   -5.9168    2.4555    0.0000 C    0  0  0  0  0  0  0  0  0  0  0  0
   -5.5813    1.7018    0.0000 C    0  0  0  0  0  0  0  0  0  0  0  0
   -4.7608    1.7880    0.0000 N    0  0  0  0  0  0  0  0  0  0  0  0
   -6.7238    2.6270    0.0000 O    0  0  0  0  0  0  0  0  0  0  0  0
   -5.7528    0.8948    0.0000 C    0  0  0  0  0  0  0  0  0  0  0  0
   -5.0383    0.4823    0.0000 S    0  0  0  0  0  0  0  0  0  0  0  0
   -4.4252    1.0099    0.0000 C    0  0  0  0  0  0  0  0  0  0  0  0
   -4.4252    0.1849    0.0000 C    0  0  0  0  0  0  0  0  0  0  0  0
   -5.1397   -0.2276    0.0000 C    0  0  0  0  0  0  0  0  0  0  0  0
   -5.1397   -1.0526    0.0000 C    0  0  0  0  0  0  0  0  0  0  0  0
   -4.4252   -1.4651    0.0000 N    0  0  0  0  0  0  0  0  0  0  0  0
   -3.7107   -1.0526    0.0000 C    0  0  0  0  0  0  0  0  0  0  0  0
   -3.7107   -0.2276    0.0000 C    0  0  0  0  0  0  0  0  0  0  0  0
   -4.4252   -2.2901    0.0000 W    0  0  0  0  0  0  0  0  0  0  0  0
   -3.7107   -2.7026    0.0000 C    0  0  0  0  0  0  0  0  0  0  0  0
   -5.1397   -2.7026    0.0000 C    0  0  0  0  0  0  0  0  0  0  0  0
   -5.1397   -1.8776    0.0000 C    0  0  0  0  0  0  0  0  0  0  0  0
   -4.4252   -3.1151    0.0000 C    0  0  0  0  0  0  0  0  0  0  0  0
   -5.8542   -1.4651    0.0000 O    0  0  0  0  0  0  0  0  0  0  0  0
   -5.8542   -3.1151    0.0000 O    0  0  0  0  0  0  0  0  0  0  0  0
   -4.4252   -3.9401    0.0000 C    0  0  0  0  0  0  0  0  0  0  0  0
   -2.9963   -3.1151    0.0000 C    0  0  0  0  0  0  0  0  0  0  0  0
    2.8499   -3.5117    0.0000 P    0  0  0  0  0  0  0  0  0  0  0  0
    4.2546   -3.6084    0.0000 C    0  0  0  0  0  0  0  0  0  0  0  0
    3.1384   -4.2846    0.0000 C    0  0  0  0  0  0  0  0  0  0  0  0
    2.5614   -2.7388    0.0000 C    0  0  0  0  0  0  0  0  0  0  0  0
    3.0866   -2.1025    0.0000 C    0  0  0  0  0  0  0  0  0  0  0  0
    2.7981   -1.3296    0.0000 C    0  0  0  0  0  0  0  0  0  0  0  0
    1.9845   -1.1930    0.0000 C    0  0  0  0  0  0  0  0  0  0  0  0
    1.4593   -1.8293    0.0000 C    0  0  0  0  0  0  0  0  0  0  0  0
    1.7478   -2.6022    0.0000 C    0  0  0  0  0  0  0  0  0  0  0  0
    4.6171   -4.3495    0.0000 C    0  0  0  0  0  0  0  0  0  0  0  0
    5.4401   -4.4061    0.0000 C    0  0  0  0  0  0  0  0  0  0  0  0
    5.9007   -3.7217    0.0000 C    0  0  0  0  0  0  0  0  0  0  0  0
    5.5383   -2.9806    0.0000 C    0  0  0  0  0  0  0  0  0  0  0  0
    4.7152   -2.9239    0.0000 C    0  0  0  0  0  0  0  0  0  0  0  0
    2.6133   -4.9209    0.0000 C    0  0  0  0  0  0  0  0  0  0  0  0
    2.9018   -5.6938    0.0000 C    0  0  0  0  0  0  0  0  0  0  0  0
    3.7154   -5.8305    0.0000 C    0  0  0  0  0  0  0  0  0  0  0  0
    4.2405   -5.1942    0.0000 C    0  0  0  0  0  0  0  0  0  0  0  0
    3.9520   -4.4212    0.0000 C    0  0  0  0  0  0  0  0  0  0  0  0
    1.6960   -0.4200    0.0000 C    0  0  0  0  0  0  0  0  0  0  0  0
    6.7238   -3.7783    0.0000 C    0  0  0  0  0  0  0  0  0  0  0  0
    4.0039   -6.6034    0.0000 C    0  0  0  0  0  0  0  0  0  0  0  0
  1  2  1  0  0
  1  3  1  0  0
  1  4  1  0  0
  1  5  1  0  0
  4  6  1  0  0
  4  7  1  0  0
  4  8  1  0  0
  8  9  2  0  0
  9 10  1  0  0
 10 11  2  0  0
 11 12  1  0  0
 12 13  2  0  0
 13  8  1  0  0
  6 14  2  0  0
 14 15  1  0  0
 15 16  2  0  0
 16 17  1  0  0
 17 18  2  0  0
 18  6  1  0  0
  7 19  2  0  0
 19 20  1  0  0
 20 21  2  0  0
 21 22  1  0  0
 22 23  2  0  0
 23  7  1  0  0
  5 24  1  0  0
  5 25  1  0  0
  5 26  1  0  0
 26 27  2  0  0
 27 28  1  0  0
 28 29  2  0  0
 29 30  1  0  0
 30 31  2  0  0
 31 26  1  0  0
 25 32  2  0  0
 32 33  1  0  0
 33 34  2  0  0
 34 35  1  0  0
 35 36  2  0  0
 36 25  1  0  0
 24 37  2  0  0
 37 38  1  0  0
 38 39  2  0  0
 39 40  1  0  0
 40 41  2  0  0
 41 24  1  0  0
  1 42  1  0  0
 42 43  1  0  0
 43 44  1  0  0
 44 45  1  0  0
 45  1  1  0  0
 43 46  2  0  0
 44 47  2  0  0
 47 48  1  0  0
 48 49  1  0  0
 49 45  2  0  0
 49 50  1  0  0
 50 51  2  0  0
 51 52  1  0  0
 52 53  2  0  0
 53 54  1  0  0
 54 55  2  0  0
 55 50  1  0  0
 53 56  1  0  0
 56 57  1  0  0
 56 58  1  0  0
 56 59  1  0  0
 56 60  1  0  0
 59 61  3  0  0
 58 62  3  0  0
 60 63  3  0  0
 57 64  3  0  0
 56 65  1  0  0
 65 66  1  0  0
 65 67  1  0  0
 65 68  1  0  0
 68 69  2  0  0
 69 70  1  0  0
 70 71  2  0  0
 71 72  1  0  0
 72 73  2  0  0
 73 68  1  0  0
 66 74  2  0  0
 74 75  1  0  0
 75 76  2  0  0
 76 77  1  0  0
 77 78  2  0  0
 78 66  1  0  0
 67 79  2  0  0
 79 80  1  0  0
 80 81  2  0  0
 81 82  1  0  0
 82 83  2  0  0
 83 67  1  0  0
 71 84  1  0  0
 76 85  1  0  0
 81 86  1  0  0
M  END
> <NMREDATA_VERSION>
1.1

> <NMREDATA_LEVEL>
0

> <NMREDATA_SOLVENT>
CD3OD/THF

> <NMREDATA_TEMPERATURE>
300

> <NMREDATA_FORMULA>
C72H65N2O4P3RhSW

> <NMREDATA_SMILES>
C#C[W](P(c1ccc(cc1)C)(c1ccc(cc1)C)c1ccc(cc1)C)(N1=CC=C(C=C1)C1=N2C(=CS1)C(=O)O[RhH2]2(P(c1ccccc1)(c1ccccc1)c1ccccc1)P(c1ccccc1)(c1ccccc1)c1ccccc1)(C#[O])(C#[O])C#C

> <NMREDATA_ASSIGNMENT>
Rh1, 510.00, 1

> <NMREDATA_1D_103Rh>
510.00, L=Rh1

$$$$
RhMan0925_0155.mol
  ChemDraw12172516052D

 24 22  0  0  0  0  0  0  0  0999 V2000
   -1.1756    0.1922    0.0000 Rh   0  1  0  0  0  0  0  0  0  0  0  0
   -1.1756   -0.6328    0.0000 O    0  0  0  0  0  0  0  0  0  0  0  0
   -1.8901    0.6047    0.0000 O    0  0  0  0  0  0  0  0  0  0  0  0
   -0.4611    0.6047    0.0000 O    0  0  0  0  0  0  0  0  0  0  0  0
   -1.1756    1.0172    0.0000 O    0  0  0  0  0  0  0  0  0  0  0  0
   -0.4611   -0.2203    0.0000 O    0  0  0  0  0  0  0  0  0  0  0  0
   -1.8901   -0.2203    0.0000 O    0  0  0  0  0  0  0  0  0  0  0  0
   -1.8901    1.4297    0.0000 H    0  0  0  0  0  0  0  0  0  0  0  0
   -0.4611    1.4297    0.0000 H    0  0  0  0  0  0  0  0  0  0  0  0
    0.2533    0.1922    0.0000 H    0  0  0  0  0  0  0  0  0  0  0  0
    0.3358    0.8182    0.0000 H    0  0  0  0  0  0  0  0  0  0  0  0
    0.3358   -0.4338    0.0000 H    0  0  0  0  0  0  0  0  0  0  0  0
   -0.2476   -1.0172    0.0000 H    0  0  0  0  0  0  0  0  0  0  0  0
   -0.9621   -1.4297    0.0000 H    0  0  0  0  0  0  0  0  0  0  0  0
   -1.8901   -1.0453    0.0000 H    0  0  0  0  0  0  0  0  0  0  0  0
   -2.4734   -0.8037    0.0000 H    0  0  0  0  0  0  0  0  0  0  0  0
   -2.7151   -0.2203    0.0000 H    0  0  0  0  0  0  0  0  0  0  0  0
   -2.7151    0.6047    0.0000 H    0  0  0  0  0  0  0  0  0  0  0  0
   -2.6045    1.0172    0.0000 H    0  0  0  0  0  0  0  0  0  0  0  0
    2.0006    0.3144    0.0000 S    0  0  0  0  0  0  0  0  0  0  0  0
    2.7151    0.7269    0.0000 O    0  5  0  0  0  0  0  0  0  0  0  0
    1.2861    0.7269    0.0000 O    0  0  0  0  0  0  0  0  0  0  0  0
    2.0006   -0.5106    0.0000 O    0  5  0  0  0  0  0  0  0  0  0  0
    2.0006    1.1394    0.0000 O    0  0  0  0  0  0  0  0  0  0  0  0
  1  2  1  0  0
  1  3  1  0  0
  1  4  1  0  0
  1  5  1  0  0
  1  6  1  0  0
  1  7  1  0  0
  5  8  1  0  0
  5  9  1  0  0
  4 10  1  0  0
  4 11  1  0  0
  6 12  1  0  0
  6 13  1  0  0
  2 14  1  0  0
  2 15  1  0  0
  7 16  1  0  0
  7 17  1  0  0
  3 18  1  0  0
  3 19  1  0  0
 20 21  1  0  0
 20 22  2  0  0
 20 23  1  0  0
 20 24  2  0  0
M  END
> <NMREDATA_VERSION>
1.1

> <NMREDATA_LEVEL>
0

> <NMREDATA_SOLVENT>
H2O/H2SO4

> <NMREDATA_FORMULA>
H14O10RhS

> <NMREDATA_SMILES>
[OH2][Rh]([OH2])([OH2])([OH2])([OH2])[OH2].OS(=O)(=O)O

> <NMREDATA_ASSIGNMENT>
Rh1, 9892.00, 1

> <NMREDATA_1D_103Rh>
9892.00, L=Rh1

$$$$
RhMan0925_0160.mol
  ChemDraw12172516452D

 35 45  0  0  0  0  0  0  0  0999 V2000
    0.0486   -0.6401    0.0000 Rh   0  0  0  0  0  0  0  0  0  0  0  0
   -0.6081    0.4808    0.0000 P    0  0  0  0  0  0  0  0  0  0  0  0
    0.5587    0.4808    0.0000 P    0  0  0  0  0  0  0  0  0  0  0  0
   -0.6081    1.3058    0.0000 C    0  0  0  0  0  0  0  0  0  0  0  0
    0.5587    1.3058    0.0000 C    0  0  0  0  0  0  0  0  0  0  0  0
    1.3209    0.1651    0.0000 C    0  0  0  0  0  0  0  0  0  0  0  0
    1.7263    1.5450    0.0000 C    0  0  0  0  0  0  0  0  0  0  0  0
   -1.5902    0.8736    0.0000 C    0  0  0  0  0  0  0  0  0  0  0  0
   -1.4732   -0.3127    0.0000 C    0  0  0  0  0  0  0  0  0  0  0  0
   -1.7078    1.6902    0.0000 C    0  0  0  0  0  0  0  0  0  0  0  0
   -2.4738    1.9966    0.0000 C    0  0  0  0  0  0  0  0  0  0  0  0
   -3.1222    1.4864    0.0000 C    0  0  0  0  0  0  0  0  0  0  0  0
   -3.0045    0.6698    0.0000 C    0  0  0  0  0  0  0  0  0  0  0  0
   -2.2385    0.3634    0.0000 C    0  0  0  0  0  0  0  0  0  0  0  0
   -2.2601   -0.0650    0.0000 C    0  0  0  0  0  0  0  0  0  0  0  0
   -2.8681   -0.6227    0.0000 C    0  0  0  0  0  0  0  0  0  0  0  0
   -2.6891   -1.4281    0.0000 C    0  0  0  0  0  0  0  0  0  0  0  0
   -1.9022   -1.6758    0.0000 C    0  0  0  0  0  0  0  0  0  0  0  0
   -1.2942   -1.1181    0.0000 C    0  0  0  0  0  0  0  0  0  0  0  0
    1.4285   -0.6529    0.0000 C    0  0  0  0  0  0  0  0  0  0  0  0
    2.1907   -0.9686    0.0000 C    0  0  0  0  0  0  0  0  0  0  0  0
    2.8453   -0.4664    0.0000 C    0  0  0  0  0  0  0  0  0  0  0  0
    2.7376    0.3516    0.0000 C    0  0  0  0  0  0  0  0  0  0  0  0
    1.9754    0.6673    0.0000 C    0  0  0  0  0  0  0  0  0  0  0  0
    2.5124    1.2948    0.0000 C    0  0  0  0  0  0  0  0  0  0  0  0
    3.1222    1.8505    0.0000 C    0  0  0  0  0  0  0  0  0  0  0  0
    2.9457    2.6564    0.0000 C    0  0  0  0  0  0  0  0  0  0  0  0
    2.1596    2.9066    0.0000 C    0  0  0  0  0  0  0  0  0  0  0  0
    1.5499    2.3509    0.0000 C    0  0  0  0  0  0  0  0  0  0  0  0
   -0.6414   -1.6691    0.0000 C    0  0  0  0  0  0  0  0  0  0  0  0
   -0.6414   -2.4941    0.0000 C    0  0  0  0  0  0  0  0  0  0  0  0
    0.0730   -2.9066    0.0000 C    0  0  0  0  0  0  0  0  0  0  0  0
    0.7875   -2.4941    0.0000 C    0  0  0  0  0  0  0  0  0  0  0  0
    0.7875   -1.6691    0.0000 C    0  0  0  0  0  0  0  0  0  0  0  0
    0.0730   -1.2566    0.0000 C    0  0  0  0  0  0  0  0  0  0  0  0
  1  2  1  0  0
  1  3  1  0  0
  2  4  1  0  0
  3  5  1  0  0
  5  4  1  0  0
  3  6  1  0  0
  3  7  1  0  0
  2  8  1  0  0
  2  9  1  0  0
  8 10  2  0  0
 10 11  1  0  0
 11 12  2  0  0
 12 13  1  0  0
 13 14  2  0  0
 14  8  1  0  0
  9 15  2  0  0
 15 16  1  0  0
 16 17  2  0  0
 17 18  1  0  0
 18 19  2  0  0
 19  9  1  0  0
  6 20  2  0  0
 20 21  1  0  0
 21 22  2  0  0
 22 23  1  0  0
 23 24  2  0  0
 24  6  1  0  0
  7 25  2  0  0
 25 26  1  0  0
 26 27  2  0  0
 27 28  1  0  0
 28 29  2  0  0
 29  7  1  0  0
 30 31  1  0  0
 31 32  1  0  0
 32 33  1  0  0
 33 34  1  0  0
 34 35  1  0  0
 35 30  1  0  0
 35  1  1  0  0
 30  1  1  0  0
 31  1  1  0  0
 32  1  1  0  0
 33  1  1  0  0
 34  1  1  0  0
M  END
> <NMREDATA_VERSION>
1.1

> <NMREDATA_LEVEL>
0

> <NMREDATA_SOLVENT>
CD2Cl2

> <NMREDATA_TEMPERATURE>
298

> <NMREDATA_FORMULA>
C32H32P2Rh

> <NMREDATA_SMILES>
c1ccc(cc1)P1(CCP([Rh]234561C1C5C3C4C2C61)(c1ccccc1)c1ccccc1)c1ccccc1

> <NMREDATA_ASSIGNMENT>
Rh1, -1014.00, 1

> <NMREDATA_1D_103Rh>
-1014.00, L=Rh1

$$$$
RhMan0925_0161.mol
  ChemDraw12172516492D

 27 36  0  0  0  0  0  0  0  0999 V2000
    0.0769   -0.8501    0.0000 Rh   0  3  0  0  0  0  0  0  0  0  0  0
   -0.5798    0.2708    0.0000 P    0  0  0  0  0  0  0  0  0  0  0  0
    0.5869    0.2708    0.0000 P    0  0  0  0  0  0  0  0  0  0  0  0
   -0.5798    1.0958    0.0000 C    0  0  0  0  0  0  0  0  0  0  0  0
    0.5869    1.0958    0.0000 C    0  0  0  0  0  0  0  0  0  0  0  0
   -0.6132   -1.8791    0.0000 C    0  0  0  0  0  0  0  0  0  0  0  0
   -0.6132   -2.7041    0.0000 C    0  0  0  0  0  0  0  0  0  0  0  0
    0.1013   -3.1166    0.0000 C    0  0  0  0  0  0  0  0  0  0  0  0
    0.8158   -2.7041    0.0000 C    0  0  0  0  0  0  0  0  0  0  0  0
    0.8158   -1.8791    0.0000 C    0  0  0  0  0  0  0  0  0  0  0  0
    0.1013   -1.4666    0.0000 C    0  0  0  0  0  0  0  0  0  0  0  0
    1.1703    2.1062    0.0000 C    0  0  0  0  0  0  0  0  0  0  0  0
    0.5869    3.1166    0.0000 C    0  0  0  0  0  0  0  0  0  0  0  0
   -0.5798    3.1166    0.0000 C    0  0  0  0  0  0  0  0  0  0  0  0
   -1.1631    2.1062    0.0000 C    0  0  0  0  0  0  0  0  0  0  0  0
   -1.1878    0.8284    0.0000 C    0  0  0  0  0  0  0  0  0  0  0  0
   -1.9060    0.4225    0.0000 C    0  0  0  0  0  0  0  0  0  0  0  0
   -1.7419   -0.3860    0.0000 C    0  0  0  0  0  0  0  0  0  0  0  0
   -0.9222   -0.6508    0.0000 C    0  0  0  0  0  0  0  0  0  0  0  0
    0.9593   -0.4654    0.0000 C    0  0  0  0  0  0  0  0  0  0  0  0
    1.7745   -0.3388    0.0000 C    0  0  0  0  0  0  0  0  0  0  0  0
    1.9060    0.4757    0.0000 C    0  0  0  0  0  0  0  0  0  0  0  0
    1.1720    0.8524    0.0000 C    0  0  0  0  0  0  0  0  0  0  0  0
    1.7554    1.4358    0.0000 C    0  0  0  0  0  0  0  0  0  0  0  0
    1.5427   -1.0488    0.0000 C    0  0  0  0  0  0  0  0  0  0  0  0
   -1.7711    1.4118    0.0000 C    0  0  0  0  0  0  0  0  0  0  0  0
   -1.5056   -1.2342    0.0000 C    0  0  0  0  0  0  0  0  0  0  0  0
  1  2  1  0  0
  1  3  1  0  0
  2  4  1  0  0
  3  5  1  0  0
  5  4  2  0  0
  6  7  1  0  0
  7  8  1  0  0
  8  9  1  0  0
  9 10  1  0  0
 10 11  1  0  0
 11  6  1  0  0
 11  1  1  0  0
  6  1  1  0  0
  7  1  1  0  0
  8  1  1  0  0
  9  1  1  0  0
 10  1  1  0  0
  5 12  1  0  0
 12 13  2  0  0
 13 14  1  0  0
 14 15  2  0  0
 15  4  1  0  0
  2 16  1  0  0
 16 17  1  0  0
 17 18  1  0  0
 18 19  1  0  0
 19  2  1  0  0
  3 20  1  0  0
 20 21  1  0  0
 21 22  1  0  0
 22 23  1  0  0
 23  3  1  0  0
 23 24  1  0  0
 20 25  1  0  0
 16 26  1  0  0
 19 27  1  0  0
M  END
> <NMREDATA_VERSION>
1.1

> <NMREDATA_LEVEL>
0

> <NMREDATA_SOLVENT>
CD2Cl2

> <NMREDATA_TEMPERATURE>
298

> <NMREDATA_FORMULA>
C24H36P2Rh

> <NMREDATA_SMILES>
CC1CCC(P21c1ccccc1P1([Rh]345672C2C6C4C5C3C72)C(C)CCC1C)C

> <NMREDATA_ASSIGNMENT>
Rh1, -1162.00, 1

> <NMREDATA_1D_103Rh>
-1162.00, L=Rh1

$$$$
RhMan0925_0162.mol
  ChemDraw12172516492D

 28 37  0  0  0  0  0  0  0  0999 V2000
    0.0769   -0.4376    0.0000 Rh   0  3  0  0  0  0  0  0  0  0  0  0
   -0.5798    0.6833    0.0000 P    0  0  0  0  0  0  0  0  0  0  0  0
    0.5869    0.6833    0.0000 P    0  0  0  0  0  0  0  0  0  0  0  0
   -0.5798    1.5083    0.0000 C    0  0  0  0  0  0  0  0  0  0  0  0
    0.5869    1.5083    0.0000 C    0  0  0  0  0  0  0  0  0  0  0  0
   -0.6132   -1.4666    0.0000 C    0  0  0  0  0  0  0  0  0  0  0  0
   -0.6132   -2.2916    0.0000 C    0  0  0  0  0  0  0  0  0  0  0  0
    0.1013   -2.7041    0.0000 C    0  0  0  0  0  0  0  0  0  0  0  0
    0.8158   -2.2916    0.0000 C    0  0  0  0  0  0  0  0  0  0  0  0
    0.8158   -1.4666    0.0000 C    0  0  0  0  0  0  0  0  0  0  0  0
    0.1013   -1.0541    0.0000 C    0  0  0  0  0  0  0  0  0  0  0  0
    1.1703    2.5187    0.0000 C    0  0  0  0  0  0  0  0  0  0  0  0
    0.5869    3.5291    0.0000 C    0  0  0  0  0  0  0  0  0  0  0  0
   -0.5798    3.5291    0.0000 C    0  0  0  0  0  0  0  0  0  0  0  0
   -1.1631    2.5187    0.0000 C    0  0  0  0  0  0  0  0  0  0  0  0
   -1.1878    1.2409    0.0000 C    0  0  0  0  0  0  0  0  0  0  0  0
   -1.9060    0.8350    0.0000 C    0  0  0  0  0  0  0  0  0  0  0  0
   -1.7419    0.0265    0.0000 C    0  0  0  0  0  0  0  0  0  0  0  0
   -0.9222   -0.2383    0.0000 C    0  0  0  0  0  0  0  0  0  0  0  0
    0.9593   -0.0529    0.0000 C    0  0  0  0  0  0  0  0  0  0  0  0
    1.7745    0.0737    0.0000 C    0  0  0  0  0  0  0  0  0  0  0  0
    1.9060    0.8882    0.0000 C    0  0  0  0  0  0  0  0  0  0  0  0
    1.1720    1.2649    0.0000 C    0  0  0  0  0  0  0  0  0  0  0  0
    1.7554    1.8483    0.0000 C    0  0  0  0  0  0  0  0  0  0  0  0
    1.5427   -0.6363    0.0000 C    0  0  0  0  0  0  0  0  0  0  0  0
   -1.7711    1.8243    0.0000 C    0  0  0  0  0  0  0  0  0  0  0  0
   -1.5056   -0.8217    0.0000 C    0  0  0  0  0  0  0  0  0  0  0  0
    0.1013   -3.5291    0.0000 C    0  0  0  0  0  0  0  0  0  0  0  0
  1  2  1  0  0
  1  3  1  0  0
  2  4  1  0  0
  3  5  1  0  0
  5  4  2  0  0
  6  7  1  0  0
  7  8  1  0  0
  8  9  1  0  0
  9 10  1  0  0
 10 11  1  0  0
 11  6  1  0  0
 11  1  1  0  0
  6  1  1  0  0
  7  1  1  0  0
  8  1  1  0  0
  9  1  1  0  0
 10  1  1  0  0
  5 12  1  0  0
 12 13  2  0  0
 13 14  1  0  0
 14 15  2  0  0
 15  4  1  0  0
  2 16  1  0  0
 16 17  1  0  0
 17 18  1  0  0
 18 19  1  0  0
 19  2  1  0  0
  3 20  1  0  0
 20 21  1  0  0
 21 22  1  0  0
 22 23  1  0  0
 23  3  1  0  0
 23 24  1  0  0
 20 25  1  0  0
 16 26  1  0  0
 19 27  1  0  0
  8 28  1  0  0
M  END
> <NMREDATA_VERSION>
1.1

> <NMREDATA_LEVEL>
0

> <NMREDATA_SOLVENT>
CD2Cl2

> <NMREDATA_TEMPERATURE>
298

> <NMREDATA_FORMULA>
C25H38P2Rh

> <NMREDATA_SMILES>
CC1CCC(P21c1ccccc1P1([Rh]345672C2C3C6C7(C5C42)C)C(C)CCC1C)C

> <NMREDATA_ASSIGNMENT>
Rh1, -1139.00, 1

> <NMREDATA_1D_103Rh>
-1139.00, L=Rh1

$$$$
RhMan0925_0163.mol
  ChemDraw12172516502D

 31 40  0  0  0  0  0  0  0  0999 V2000
   -0.2463   -0.8501    0.0000 Rh   0  3  0  0  0  0  0  0  0  0  0  0
   -0.9029    0.2708    0.0000 P    0  0  0  0  0  0  0  0  0  0  0  0
    0.2638    0.2708    0.0000 P    0  0  0  0  0  0  0  0  0  0  0  0
   -0.9029    1.0958    0.0000 C    0  0  0  0  0  0  0  0  0  0  0  0
    0.2638    1.0958    0.0000 C    0  0  0  0  0  0  0  0  0  0  0  0
   -0.9363   -1.8791    0.0000 C    0  0  0  0  0  0  0  0  0  0  0  0
   -0.9363   -2.7041    0.0000 C    0  0  0  0  0  0  0  0  0  0  0  0
   -0.2218   -3.1166    0.0000 C    0  0  0  0  0  0  0  0  0  0  0  0
    0.4926   -2.7041    0.0000 C    0  0  0  0  0  0  0  0  0  0  0  0
    0.4926   -1.8791    0.0000 C    0  0  0  0  0  0  0  0  0  0  0  0
   -0.2218   -1.4666    0.0000 C    0  0  0  0  0  0  0  0  0  0  0  0
    0.8472    2.1062    0.0000 C    0  0  0  0  0  0  0  0  0  0  0  0
    0.2638    3.1166    0.0000 C    0  0  0  0  0  0  0  0  0  0  0  0
   -0.9029    3.1166    0.0000 C    0  0  0  0  0  0  0  0  0  0  0  0
   -1.4863    2.1062    0.0000 C    0  0  0  0  0  0  0  0  0  0  0  0
   -1.5109    0.8284    0.0000 C    0  0  0  0  0  0  0  0  0  0  0  0
   -2.2292    0.4225    0.0000 C    0  0  0  0  0  0  0  0  0  0  0  0
   -2.0650   -0.3860    0.0000 C    0  0  0  0  0  0  0  0  0  0  0  0
   -1.2454   -0.6508    0.0000 C    0  0  0  0  0  0  0  0  0  0  0  0
    0.6361   -0.4654    0.0000 C    0  0  0  0  0  0  0  0  0  0  0  0
    1.4514   -0.3388    0.0000 C    0  0  0  0  0  0  0  0  0  0  0  0
    1.5829    0.4757    0.0000 C    0  0  0  0  0  0  0  0  0  0  0  0
    0.8489    0.8524    0.0000 C    0  0  0  0  0  0  0  0  0  0  0  0
    1.4323    1.4358    0.0000 C    0  0  0  0  0  0  0  0  0  0  0  0
    1.2195   -1.0488    0.0000 C    0  0  0  0  0  0  0  0  0  0  0  0
   -2.0943    1.4118    0.0000 C    0  0  0  0  0  0  0  0  0  0  0  0
   -1.8288   -1.2342    0.0000 C    0  0  0  0  0  0  0  0  0  0  0  0
   -1.8808    2.2087    0.0000 C    0  0  0  0  0  0  0  0  0  0  0  0
   -1.6152   -2.0311    0.0000 C    0  0  0  0  0  0  0  0  0  0  0  0
    1.0060   -1.8457    0.0000 C    0  0  0  0  0  0  0  0  0  0  0  0
    2.2292    1.2222    0.0000 C    0  0  0  0  0  0  0  0  0  0  0  0
  1  2  1  0  0
  1  3  1  0  0
  2  4  1  0  0
  3  5  1  0  0
  5  4  2  0  0
  6  7  1  0  0
  7  8  1  0  0
  8  9  1  0  0
  9 10  1  0  0
 10 11  1  0  0
 11  6  1  0  0
 11  1  1  0  0
  6  1  1  0  0
  7  1  1  0  0
  8  1  1  0  0
  9  1  1  0  0
 10  1  1  0  0
  5 12  1  0  0
 12 13  2  0  0
 13 14  1  0  0
 14 15  2  0  0
 15  4  1  0  0
  2 16  1  0  0
 16 17  1  0  0
 17 18  1  0  0
 18 19  1  0  0
 19  2  1  0  0
  3 20  1  0  0
 20 21  1  0  0
 21 22  1  0  0
 22 23  1  0  0
 23  3  1  0  0
 23 24  1  0  0
 20 25  1  0  0
 16 26  1  0  0
 19 27  1  0  0
 26 28  1  0  0
 27 29  1  0  0
 25 30  1  0  0
 24 31  1  0  0
M  END
> <NMREDATA_VERSION>
1.1

> <NMREDATA_LEVEL>
0

> <NMREDATA_SOLVENT>
CD3OD

> <NMREDATA_TEMPERATURE>
298

> <NMREDATA_FORMULA>
C28H44P2Rh

> <NMREDATA_SMILES>
CCC1CCC(P21c1ccccc1P1([Rh]345672C2C6C4C5C3C72)C(CC)CCC1CC)CC

> <NMREDATA_ASSIGNMENT>
Rh1, -1116.00, 1

> <NMREDATA_1D_103Rh>
-1116.00, L=Rh1

$$$$
RhMan0925_0164.mol
  ChemDraw12172516512D

 34 43  0  0  0  0  0  0  0  0999 V2000
   -0.2463   -0.4376    0.0000 Rh   0  3  0  0  0  0  0  0  0  0  0  0
   -0.9029    0.6833    0.0000 P    0  0  0  0  0  0  0  0  0  0  0  0
    0.2638    0.6833    0.0000 P    0  0  0  0  0  0  0  0  0  0  0  0
   -0.9029    1.5083    0.0000 C    0  0  0  0  0  0  0  0  0  0  0  0
    0.2638    1.5083    0.0000 C    0  0  0  0  0  0  0  0  0  0  0  0
   -0.9363   -1.4666    0.0000 C    0  0  0  0  0  0  0  0  0  0  0  0
   -0.9363   -2.2916    0.0000 C    0  0  0  0  0  0  0  0  0  0  0  0
   -0.2218   -2.7041    0.0000 C    0  0  0  0  0  0  0  0  0  0  0  0
    0.4926   -2.2916    0.0000 C    0  0  0  0  0  0  0  0  0  0  0  0
    0.4926   -1.4666    0.0000 C    0  0  0  0  0  0  0  0  0  0  0  0
   -0.2218   -1.0541    0.0000 C    0  0  0  0  0  0  0  0  0  0  0  0
    0.8472    2.5187    0.0000 C    0  0  0  0  0  0  0  0  0  0  0  0
    0.2638    3.5291    0.0000 C    0  0  0  0  0  0  0  0  0  0  0  0
   -0.9029    3.5291    0.0000 C    0  0  0  0  0  0  0  0  0  0  0  0
   -1.4863    2.5187    0.0000 C    0  0  0  0  0  0  0  0  0  0  0  0
   -1.5109    1.2409    0.0000 C    0  0  0  0  0  0  0  0  0  0  0  0
   -2.2292    0.8350    0.0000 C    0  0  0  0  0  0  0  0  0  0  0  0
   -2.0650    0.0265    0.0000 C    0  0  0  0  0  0  0  0  0  0  0  0
   -1.2454   -0.2383    0.0000 C    0  0  0  0  0  0  0  0  0  0  0  0
    0.6361   -0.0529    0.0000 C    0  0  0  0  0  0  0  0  0  0  0  0
    1.4514    0.0737    0.0000 C    0  0  0  0  0  0  0  0  0  0  0  0
    1.5829    0.8882    0.0000 C    0  0  0  0  0  0  0  0  0  0  0  0
    0.8489    1.2649    0.0000 C    0  0  0  0  0  0  0  0  0  0  0  0
    1.4323    1.8483    0.0000 C    0  0  0  0  0  0  0  0  0  0  0  0
    1.2195   -0.6363    0.0000 C    0  0  0  0  0  0  0  0  0  0  0  0
   -2.0943    1.8243    0.0000 C    0  0  0  0  0  0  0  0  0  0  0  0
   -1.8288   -0.8217    0.0000 C    0  0  0  0  0  0  0  0  0  0  0  0
   -1.8808    2.6212    0.0000 C    0  0  0  0  0  0  0  0  0  0  0  0
   -1.6152   -1.6186    0.0000 C    0  0  0  0  0  0  0  0  0  0  0  0
    1.0060   -1.4332    0.0000 C    0  0  0  0  0  0  0  0  0  0  0  0
    2.2292    1.6347    0.0000 C    0  0  0  0  0  0  0  0  0  0  0  0
   -0.2218   -3.5291    0.0000 C    0  0  0  0  0  0  0  0  0  0  0  0
    1.2071   -1.8791    0.0000 C    0  0  0  0  0  0  0  0  0  0  0  0
   -1.3488   -2.1811    0.0000 C    0  0  0  0  0  0  0  0  0  0  0  0
  1  2  1  0  0
  1  3  1  0  0
  2  4  1  0  0
  3  5  1  0  0
  5  4  2  0  0
  6  7  1  0  0
  7  8  1  0  0
  8  9  1  0  0
  9 10  1  0  0
 10 11  1  0  0
 11  6  1  0  0
 11  1  1  0  0
  6  1  1  0  0
  7  1  1  0  0
  8  1  1  0  0
  9  1  1  0  0
 10  1  1  0  0
  5 12  1  0  0
 12 13  2  0  0
 13 14  1  0  0
 14 15  2  0  0
 15  4  1  0  0
  2 16  1  0  0
 16 17  1  0  0
 17 18  1  0  0
 18 19  1  0  0
 19  2  1  0  0
  3 20  1  0  0
 20 21  1  0  0
 21 22  1  0  0
 22 23  1  0  0
 23  3  1  0  0
 23 24  1  0  0
 20 25  1  0  0
 16 26  1  0  0
 19 27  1  0  0
 26 28  1  0  0
 27 29  1  0  0
 25 30  1  0  0
 24 31  1  0  0
  8 32  1  0  0
 10 33  1  0  0
  6 34  1  0  0
M  END
> <NMREDATA_VERSION>
1.1

> <NMREDATA_LEVEL>
0

> <NMREDATA_SOLVENT>
CD3OD

> <NMREDATA_TEMPERATURE>
298

> <NMREDATA_FORMULA>
C31H50P2Rh

> <NMREDATA_SMILES>
CCC1CCC(P21c1ccccc1P1([Rh]345672C2C6(C4C5(C3C72C)C)C)C(CC)CCC1CC)CC

> <NMREDATA_ASSIGNMENT>
Rh1, -928.00, 1

> <NMREDATA_1D_103Rh>
-928.00, L=Rh1

$$$$
RhMan0925_0166.mol
  ChemDraw12172517172D

 41100  0  0  0  0  0  0  0  0999 V2000
    0.2923   -1.9753    0.0000 Rh   0  0  0  0  0  0  0  0  0  0  0  0
    2.6756    1.1606    0.0000 Sn   0  0  0  0  0  0  0  0  0  0  0  0
    1.9593    3.1536    0.0000 B    0  0  0  0  0  0  0  0  0  0  0  0
    3.8751    2.2508    0.0000 B    0  0  0  0  0  0  0  0  0  0  0  0
    5.6147    3.4585    0.0000 B    0  0  0  0  0  0  0  0  0  0  0  0
    4.4070    5.1982    0.0000 B    0  0  0  0  0  0  0  0  0  0  0  0
    2.2966    5.0221    0.0000 B    0  0  0  0  0  0  0  0  0  0  0  0
    2.6226    4.4842    0.0000 B    0  0  0  0  0  0  0  0  0  0  0  0
    4.4484    3.4113    0.0000 B    0  0  0  0  0  0  0  0  0  0  0  0
    6.0331    4.8162    0.0000 B    0  0  0  0  0  0  0  0  0  0  0  0
    5.1866    6.7575    0.0000 B    0  0  0  0  0  0  0  0  0  0  0  0
    3.0788    6.5523    0.0000 B    0  0  0  0  0  0  0  0  0  0  0  0
    5.8570    6.9267    0.0000 B    0  0  0  0  0  0  0  0  0  0  0  0
    2.6287   -2.8772    0.0000 Sn   0  0  0  0  0  0  0  0  0  0  0  0
    4.7096   -2.4836    0.0000 B    0  0  0  0  0  0  0  0  0  0  0  0
    3.5165   -4.2333    0.0000 B    0  0  0  0  0  0  0  0  0  0  0  0
    4.4353   -6.1414    0.0000 B    0  0  0  0  0  0  0  0  0  0  0  0
    6.3434   -5.2226    0.0000 B    0  0  0  0  0  0  0  0  0  0  0  0
    6.5018   -3.1108    0.0000 B    0  0  0  0  0  0  0  0  0  0  0  0
    5.9193   -3.3481    0.0000 B    0  0  0  0  0  0  0  0  0  0  0  0
    4.5723   -4.9822    0.0000 B    0  0  0  0  0  0  0  0  0  0  0  0
    5.7102   -6.7683    0.0000 B    0  0  0  0  0  0  0  0  0  0  0  0
    7.7605   -6.2380    0.0000 B    0  0  0  0  0  0  0  0  0  0  0  0
    7.8897   -4.1241    0.0000 B    0  0  0  0  0  0  0  0  0  0  0  0
    7.8221   -6.9267    0.0000 B    0  0  0  0  0  0  0  0  0  0  0  0
   -1.3079   -1.9761    0.0000 Sn   0  0  0  0  0  0  0  0  0  0  0  0
   -2.7591   -3.5185    0.0000 B    0  0  0  0  0  0  0  0  0  0  0  0
   -2.8236   -1.4017    0.0000 B    0  0  0  0  0  0  0  0  0  0  0  0
   -4.6890   -0.3991    0.0000 B    0  0  0  0  0  0  0  0  0  0  0  0
   -5.6916   -2.2646    0.0000 B    0  0  0  0  0  0  0  0  0  0  0  0
   -4.5773   -4.0655    0.0000 B    0  0  0  0  0  0  0  0  0  0  0  0
   -4.2458   -3.5310    0.0000 B    0  0  0  0  0  0  0  0  0  0  0  0
   -4.1179   -1.4171    0.0000 B    0  0  0  0  0  0  0  0  0  0  0  0
   -6.0888   -0.6422    0.0000 B    0  0  0  0  0  0  0  0  0  0  0  0
   -7.4348   -2.2772    0.0000 B    0  0  0  0  0  0  0  0  0  0  0  0
   -6.2958   -4.0626    0.0000 B    0  0  0  0  0  0  0  0  0  0  0  0
   -7.8897   -1.7564    0.0000 B    0  0  0  0  0  0  0  0  0  0  0  0
   -0.0733   -2.8003    0.0000 C    0  0  0  0  0  0  0  0  0  0  0  0
   -0.0781   -1.1503    0.0000 C    0  0  0  0  0  0  0  0  0  0  0  0
   -0.0829   -0.3253    0.0000 O    0  0  0  0  0  0  0  0  0  0  0  0
   -0.0733   -3.6253    0.0000 O    0  0  0  0  0  0  0  0  0  0  0  0
  1  2  1  0  0
  2  3  1  0  0
  3  4  1  0  0
  4  5  1  0  0
  5  6  1  0  0
  6  7  1  0  0
  3  7  1  0  0
  2  4  1  0  0
  8  9  1  0  0
  9 10  1  0  0
 10 11  1  0  0
 11 12  1  0  0
 12  8  1  0  0
  5  2  1  0  0
  6  2  1  0  0
  7  2  1  0  0
  9  4  1  0  0
  9  3  1  0  0
  8  4  1  0  0
  8  3  1  0  0
  8  7  1  0  0
  7 12  1  0  0
 12  6  1  0  0
  6 11  1  0  0
 11  5  1  0  0
  5 10  1  0  0
 10  4  1  0  0
 10 13  1  0  0
 13 11  1  0  0
 13 12  1  0  0
 13  8  1  0  0
 13  9  1  0  0
 14 15  1  0  0
 15 16  1  0  0
 16 17  1  0  0
 17 18  1  0  0
 18 19  1  0  0
 15 19  1  0  0
 14 16  1  0  0
 20 21  1  0  0
 21 22  1  0  0
 22 23  1  0  0
 23 24  1  0  0
 24 20  1  0  0
 17 14  1  0  0
 18 14  1  0  0
 19 14  1  0  0
 21 16  1  0  0
 21 15  1  0  0
 20 16  1  0  0
 20 15  1  0  0
 20 19  1  0  0
 19 24  1  0  0
 24 18  1  0  0
 18 23  1  0  0
 23 17  1  0  0
 17 22  1  0  0
 22 16  1  0  0
 22 25  1  0  0
 25 23  1  0  0
 25 24  1  0  0
 25 20  1  0  0
 25 21  1  0  0
 26 27  1  0  0
 27 28  1  0  0
 28 29  1  0  0
 29 30  1  0  0
 30 31  1  0  0
 27 31  1  0  0
 26 28  1  0  0
 32 33  1  0  0
 33 34  1  0  0
 34 35  1  0  0
 35 36  1  0  0
 36 32  1  0  0
 29 26  1  0  0
 30 26  1  0  0
 31 26  1  0  0
 33 28  1  0  0
 33 27  1  0  0
 32 28  1  0  0
 32 27  1  0  0
 32 31  1  0  0
 31 36  1  0  0
 36 30  1  0  0
 30 35  1  0  0
 35 29  1  0  0
 29 34  1  0  0
 34 28  1  0  0
 34 37  1  0  0
 37 35  1  0  0
 37 36  1  0  0
 37 32  1  0  0
 37 33  1  0  0
 14  1  1  0  0
  1 26  1  0  0
  1 38  1  0  0
  1 39  1  0  0
 39 40  3  0  0
 38 41  3  0  0
M  END
> <NMREDATA_VERSION>
1.1

> <NMREDATA_LEVEL>
0

> <NMREDATA_SOLVENT>
CD2Cl2

> <NMREDATA_TEMPERATURE>
298

> <NMREDATA_FORMULA>
C2B33O2RhSn3

> <NMREDATA_SMILES>
[O]#C[Rh]([Sn]1234[B]567[B]892[B]2%101[B]1%113[B]3%1245[B]457[B]768[B]69%10[B]8213[B]%11%124[B]5768)([Sn]1234[B]567[B]892[B]2%101[B]1%113[B]3%1245[B]457[B]768[B]69%10[B]8213[B]%11%124[B]5768)([Sn]1234[B]567[B]892[B]2%101[B]1%113[B]3%1245[B]457[B]768[B]69%10[B]8213[B]%11%124[B]5768)C#[O]

> <NMREDATA_ASSIGNMENT>
Rh1, -1257.00, 1

> <NMREDATA_1D_103Rh>
-1257.00, L=Rh1

$$$$
RhMan0925_0168.mol
  ChemDraw12172517372D

 40 47  0  0  0  0  0  0  0  0999 V2000
   -1.1504    1.5408    0.0000 Rh   0  0  0  0  0  0  0  0  0  0  0  0
   -1.1504    0.7158    0.0000 P    0  0  0  0  0  0  0  0  0  0  0  0
   -0.3254    0.7158    0.0000 N    0  0  0  0  0  0  0  0  0  0  0  0
   -1.8649    0.3033    0.0000 O    0  0  0  0  0  0  0  0  0  0  0  0
   -1.1504   -0.1092    0.0000 O    0  0  0  0  0  0  0  0  0  0  0  0
    0.0871    1.4302    0.0000 C    0  0  0  0  0  0  0  0  0  0  0  0
    0.0871    0.0013    0.0000 C    0  0  0  0  0  0  0  0  0  0  0  0
   -2.4744    0.0062    0.0000 C    0  0  0  0  0  0  0  0  0  0  0  0
   -1.3008   -0.8664    0.0000 C    0  0  0  0  0  0  0  0  0  0  0  0
   -2.0531   -1.1072    0.0000 C    0  0  0  0  0  0  0  0  0  0  0  0
   -2.6248   -0.5956    0.0000 C    0  0  0  0  0  0  0  0  0  0  0  0
   -2.9203    0.4374    0.0000 C    0  0  0  0  0  0  0  0  0  0  0  0
   -3.5167    0.2668    0.0000 C    0  0  0  0  0  0  0  0  0  0  0  0
   -3.6672   -0.3350    0.0000 C    0  0  0  0  0  0  0  0  0  0  0  0
   -3.2212   -0.7662    0.0000 C    0  0  0  0  0  0  0  0  0  0  0  0
   -3.9627    0.6980    0.0000 C    0  0  0  0  0  0  0  0  0  0  0  0
   -4.5591    0.5274    0.0000 C    0  0  0  0  0  0  0  0  0  0  0  0
   -4.7095   -0.0745    0.0000 C    0  0  0  0  0  0  0  0  0  0  0  0
   -4.2636   -0.5056    0.0000 C    0  0  0  0  0  0  0  0  0  0  0  0
   -2.2207   -1.8790    0.0000 C    0  0  0  0  0  0  0  0  0  0  0  0
   -1.6361   -2.4101    0.0000 C    0  0  0  0  0  0  0  0  0  0  0  0
   -0.8839   -2.1694    0.0000 C    0  0  0  0  0  0  0  0  0  0  0  0
   -0.7162   -1.3976    0.0000 C    0  0  0  0  0  0  0  0  0  0  0  0
   -1.8038   -3.1819    0.0000 C    0  0  0  0  0  0  0  0  0  0  0  0
   -1.2192   -3.7131    0.0000 C    0  0  0  0  0  0  0  0  0  0  0  0
   -0.4669   -3.4723    0.0000 C    0  0  0  0  0  0  0  0  0  0  0  0
   -0.2993   -2.7005    0.0000 C    0  0  0  0  0  0  0  0  0  0  0  0
   -0.2778    2.5037    0.0000 C    0  0  0  0  0  0  0  0  0  0  0  0
   -0.8611    3.0870    0.0000 C    0  0  0  0  0  0  0  0  0  0  0  0
   -1.6861    3.0870    0.0000 C    0  0  0  0  0  0  0  0  0  0  0  0
   -2.2695    2.5037    0.0000 C    0  0  0  0  0  0  0  0  0  0  0  0
   -2.0560    3.3006    0.0000 C    0  0  0  0  0  0  0  0  0  0  0  0
   -1.3415    3.7131    0.0000 C    0  0  0  0  0  0  0  0  0  0  0  0
   -0.5165    3.7131    0.0000 C    0  0  0  0  0  0  0  0  0  0  0  0
   -0.1040    2.9986    0.0000 C    0  0  0  0  0  0  0  0  0  0  0  0
    3.9950    0.8788    0.0000 B    0  5  0  0  0  0  0  0  0  0  0  0
    3.9950    0.0538    0.0000 F    0  0  0  0  0  0  0  0  0  0  0  0
    3.2806    1.2913    0.0000 F    0  0  0  0  0  0  0  0  0  0  0  0
    4.7095    1.2913    0.0000 F    0  0  0  0  0  0  0  0  0  0  0  0
    3.9950    1.7038    0.0000 F    0  0  0  0  0  0  0  0  0  0  0  0
  1  2  1  0  0
  2  3  1  0  0
  2  4  1  0  0
  2  5  1  0  0
  3  6  1  0  0
  3  7  1  0  0
  4  8  1  0  0
  5  9  1  0  0
  9 10  2  0  0
 10 11  1  0  0
 11  8  2  0  0
  8 12  1  0  0
 12 13  2  0  0
 13 14  1  0  0
 14 15  2  0  0
 15 11  1  0  0
 13 16  1  0  0
 16 17  2  0  0
 17 18  1  0  0
 18 19  2  0  0
 19 14  1  0  0
 10 20  1  0  0
 20 21  2  0  0
 21 22  1  0  0
 22 23  2  0  0
 23  9  1  0  0
 21 24  1  0  0
 24 25  2  0  0
 25 26  1  0  0
 26 27  2  0  0
 27 22  1  0  0
 28 29  1  0  0
 29 30  1  0  0
 30 31  1  0  0
 31 32  2  0  0
 32 33  1  0  0
 33 34  1  0  0
 34 35  1  0  0
 35 28  2  0  0
 28  1  1  0  0
 35  1  1  0  0
 31  1  1  0  0
 32  1  1  0  0
 36 37  1  0  0
 36 38  1  0  0
 36 39  1  0  0
 36 40  1  0  0
M  END
> <NMREDATA_VERSION>
1.1

> <NMREDATA_LEVEL>
0

> <NMREDATA_SOLVENT>
CDCl3

> <NMREDATA_TEMPERATURE>
228

> <NMREDATA_FORMULA>
C30H27BF4NO2PRh

> <NMREDATA_SMILES>
F[B](F)(F)F.CN(P1(Oc2cc3ccccc3cc2-c2c(O1)cc1ccccc1c2)[Rh]123C4=C3CCC1=C2CC4)C

> <NMREDATA_ASSIGNMENT>
Rh1, -391.00, 1

> <NMREDATA_1D_103Rh>
-391.00, L=Rh1

$$$$
RhMan0925_0169.mol
  ChemDraw12172517382D

 66 78  0  0  0  0  0  0  0  0999 V2000
    0.2770    0.3391    0.0000 Rh   0  0  0  0  0  0  0  0  0  0  0  0
    0.2770   -0.4859    0.0000 P    0  0  0  0  0  0  0  0  0  0  0  0
    1.1020   -0.4859    0.0000 N    0  0  0  0  0  0  0  0  0  0  0  0
   -0.4375   -0.8984    0.0000 O    0  0  0  0  0  0  0  0  0  0  0  0
    0.2770   -1.3109    0.0000 O    0  0  0  0  0  0  0  0  0  0  0  0
    1.5145    0.2285    0.0000 C    0  0  0  0  0  0  0  0  0  0  0  0
    1.5145   -1.2004    0.0000 C    0  0  0  0  0  0  0  0  0  0  0  0
   -1.0470   -1.1955    0.0000 C    0  0  0  0  0  0  0  0  0  0  0  0
    0.1265   -2.0682    0.0000 C    0  0  0  0  0  0  0  0  0  0  0  0
   -0.6257   -2.3089    0.0000 C    0  0  0  0  0  0  0  0  0  0  0  0
   -1.1975   -1.7974    0.0000 C    0  0  0  0  0  0  0  0  0  0  0  0
   -1.4930   -0.7644    0.0000 C    0  0  0  0  0  0  0  0  0  0  0  0
   -2.0894   -0.9350    0.0000 C    0  0  0  0  0  0  0  0  0  0  0  0
   -2.2398   -1.5368    0.0000 C    0  0  0  0  0  0  0  0  0  0  0  0
   -1.7939   -1.9680    0.0000 C    0  0  0  0  0  0  0  0  0  0  0  0
   -2.5353   -0.5038    0.0000 C    0  0  0  0  0  0  0  0  0  0  0  0
   -3.1317   -0.6744    0.0000 C    0  0  0  0  0  0  0  0  0  0  0  0
   -3.2822   -1.2762    0.0000 C    0  0  0  0  0  0  0  0  0  0  0  0
   -2.8362   -1.7074    0.0000 C    0  0  0  0  0  0  0  0  0  0  0  0
   -0.7934   -3.0807    0.0000 C    0  0  0  0  0  0  0  0  0  0  0  0
   -0.2088   -3.6118    0.0000 C    0  0  0  0  0  0  0  0  0  0  0  0
    0.5435   -3.3711    0.0000 C    0  0  0  0  0  0  0  0  0  0  0  0
    0.7111   -2.5993    0.0000 C    0  0  0  0  0  0  0  0  0  0  0  0
   -0.3765   -4.3837    0.0000 C    0  0  0  0  0  0  0  0  0  0  0  0
    0.2081   -4.9148    0.0000 C    0  0  0  0  0  0  0  0  0  0  0  0
    0.9604   -4.6741    0.0000 C    0  0  0  0  0  0  0  0  0  0  0  0
    1.1281   -3.9022    0.0000 C    0  0  0  0  0  0  0  0  0  0  0  0
    1.1496    1.3019    0.0000 C    0  0  0  0  0  0  0  0  0  0  0  0
    0.5662    1.8853    0.0000 C    0  0  0  0  0  0  0  0  0  0  0  0
   -0.2588    1.8853    0.0000 C    0  0  0  0  0  0  0  0  0  0  0  0
   -0.8421    1.3019    0.0000 C    0  0  0  0  0  0  0  0  0  0  0  0
   -0.6286    2.0988    0.0000 C    0  0  0  0  0  0  0  0  0  0  0  0
    0.0858    2.5113    0.0000 C    0  0  0  0  0  0  0  0  0  0  0  0
    0.9108    2.5113    0.0000 C    0  0  0  0  0  0  0  0  0  0  0  0
    1.3233    1.7969    0.0000 C    0  0  0  0  0  0  0  0  0  0  0  0
   -1.9902    1.3140    0.0000 P    0  0  0  0  0  0  0  0  0  0  0  0
   -2.2930    0.5466    0.0000 N    0  0  0  0  0  0  0  0  0  0  0  0
   -2.1117    2.1300    0.0000 O    0  0  0  0  0  0  0  0  0  0  0  0
   -2.7576    1.6168    0.0000 O    0  0  0  0  0  0  0  0  0  0  0  0
   -3.1090    0.4251    0.0000 C    0  0  0  0  0  0  0  0  0  0  0  0
   -2.1644    2.8060    0.0000 C    0  0  0  0  0  0  0  0  0  0  0  0
   -3.4068    2.0346    0.0000 C    0  0  0  0  0  0  0  0  0  0  0  0
   -3.3546    2.8227    0.0000 C    0  0  0  0  0  0  0  0  0  0  0  0
   -2.6689    3.1668    0.0000 C    0  0  0  0  0  0  0  0  0  0  0  0
   -1.5996    3.0626    0.0000 C    0  0  0  0  0  0  0  0  0  0  0  0
   -1.5394    3.6800    0.0000 C    0  0  0  0  0  0  0  0  0  0  0  0
   -2.0440    4.0408    0.0000 C    0  0  0  0  0  0  0  0  0  0  0  0
   -2.6088    3.7842    0.0000 C    0  0  0  0  0  0  0  0  0  0  0  0
   -0.9746    3.9366    0.0000 C    0  0  0  0  0  0  0  0  0  0  0  0
   -0.9144    4.5540    0.0000 C    0  0  0  0  0  0  0  0  0  0  0  0
   -1.4190    4.9148    0.0000 C    0  0  0  0  0  0  0  0  0  0  0  0
   -1.9838    4.6582    0.0000 C    0  0  0  0  0  0  0  0  0  0  0  0
   -4.0111    3.2620    0.0000 C    0  0  0  0  0  0  0  0  0  0  0  0
   -4.7197    2.9131    0.0000 C    0  0  0  0  0  0  0  0  0  0  0  0
   -4.7718    2.1250    0.0000 C    0  0  0  0  0  0  0  0  0  0  0  0
   -4.1154    1.6858    0.0000 C    0  0  0  0  0  0  0  0  0  0  0  0
   -5.3761    3.3523    0.0000 C    0  0  0  0  0  0  0  0  0  0  0  0
   -6.0847    3.0034    0.0000 C    0  0  0  0  0  0  0  0  0  0  0  0
   -6.1369    2.2153    0.0000 C    0  0  0  0  0  0  0  0  0  0  0  0
   -5.4804    1.7761    0.0000 C    0  0  0  0  0  0  0  0  0  0  0  0
   -1.7797   -0.0994    0.0000 C    0  0  0  0  0  0  0  0  0  0  0  0
    5.4224   -0.3229    0.0000 B    0  5  0  0  0  0  0  0  0  0  0  0
    5.4224   -1.1479    0.0000 F    0  0  0  0  0  0  0  0  0  0  0  0
    4.7079    0.0896    0.0000 F    0  0  0  0  0  0  0  0  0  0  0  0
    6.1369    0.0896    0.0000 F    0  0  0  0  0  0  0  0  0  0  0  0
    5.4224    0.5021    0.0000 F    0  0  0  0  0  0  0  0  0  0  0  0
  1  2  1  0  0
  2  3  1  0  0
  2  4  1  0  0
  2  5  1  0  0
  3  6  1  0  0
  3  7  1  0  0
  4  8  1  0  0
  5  9  1  0  0
  9 10  2  0  0
 10 11  1  0  0
 11  8  2  0  0
  8 12  1  0  0
 12 13  2  0  0
 13 14  1  0  0
 14 15  2  0  0
 15 11  1  0  0
 13 16  1  0  0
 16 17  2  0  0
 17 18  1  0  0
 18 19  2  0  0
 19 14  1  0  0
 10 20  1  0  0
 20 21  2  0  0
 21 22  1  0  0
 22 23  2  0  0
 23  9  1  0  0
 21 24  1  0  0
 24 25  2  0  0
 25 26  1  0  0
 26 27  2  0  0
 27 22  1  0  0
 28 29  1  0  0
 29 30  1  0  0
 30 31  1  0  0
 31 32  2  0  0
 32 33  1  0  0
 33 34  1  0  0
 34 35  1  0  0
 35 28  2  0  0
 28  1  1  0  0
 35  1  1  0  0
 31  1  1  0  0
 32  1  1  0  0
 36 37  1  0  0
 36 38  1  0  0
 36 39  1  0  0
 37 40  1  0  0
 38 41  1  0  0
 39 42  1  0  0
 42 43  2  0  0
 43 44  1  0  0
 44 41  2  0  0
 41 45  1  0  0
 45 46  2  0  0
 46 47  1  0  0
 47 48  2  0  0
 48 44  1  0  0
 46 49  1  0  0
 49 50  2  0  0
 50 51  1  0  0
 51 52  2  0  0
 52 47  1  0  0
 43 53  1  0  0
 53 54  2  0  0
 54 55  1  0  0
 55 56  2  0  0
 56 42  1  0  0
 54 57  1  0  0
 57 58  2  0  0
 58 59  1  0  0
 59 60  2  0  0
 60 55  1  0  0
 37 61  1  0  0
 36  1  1  0  0
 62 63  1  0  0
 62 64  1  0  0
 62 65  1  0  0
 62 66  1  0  0
M  END
> <NMREDATA_VERSION>
1.1

> <NMREDATA_LEVEL>
0

> <NMREDATA_SOLVENT>
CDCl3

> <NMREDATA_TEMPERATURE>
228

> <NMREDATA_FORMULA>
C52H46BF4N2O4P2Rh

> <NMREDATA_SMILES>
F[B](F)(F)F.CN(P1(Oc2cc3ccccc3cc2-c2c(O1)cc1ccccc1c2)[Rh]123(C4=C3CCC1=C2CC4)P1(Oc2cc3ccccc3cc2-c2c(O1)cc1ccccc1c2)N(C)C)C

> <NMREDATA_ASSIGNMENT>
Rh1, -374.00, 1

> <NMREDATA_1D_103Rh>
-374.00, L=Rh1

$$$$
RhMan0925_0170.mol
  ChemDraw12172517422D

 65 78  0  0  0  0  0  0  0  0999 V2000
    0.2770    0.3391    0.0000 Rh   0  0  0  0  0  0  0  0  0  0  0  0
    0.2770   -0.4859    0.0000 P    0  0  0  0  0  0  0  0  0  0  0  0
    1.1020   -0.4859    0.0000 N    0  0  0  0  0  0  0  0  0  0  0  0
   -0.4375   -0.8984    0.0000 O    0  0  0  0  0  0  0  0  0  0  0  0
    0.2770   -1.3109    0.0000 O    0  0  0  0  0  0  0  0  0  0  0  0
    1.5145    0.2285    0.0000 C    0  0  0  0  0  0  0  0  0  0  0  0
    1.5145   -1.2004    0.0000 C    0  0  0  0  0  0  0  0  0  0  0  0
   -1.0470   -1.1955    0.0000 C    0  0  0  0  0  0  0  0  0  0  0  0
    0.1265   -2.0682    0.0000 C    0  0  0  0  0  0  0  0  0  0  0  0
   -0.6257   -2.3089    0.0000 C    0  0  0  0  0  0  0  0  0  0  0  0
   -1.1975   -1.7974    0.0000 C    0  0  0  0  0  0  0  0  0  0  0  0
   -1.4930   -0.7644    0.0000 C    0  0  0  0  0  0  0  0  0  0  0  0
   -2.0894   -0.9350    0.0000 C    0  0  0  0  0  0  0  0  0  0  0  0
   -2.2398   -1.5368    0.0000 C    0  0  0  0  0  0  0  0  0  0  0  0
   -1.7939   -1.9680    0.0000 C    0  0  0  0  0  0  0  0  0  0  0  0
   -2.5353   -0.5038    0.0000 C    0  0  0  0  0  0  0  0  0  0  0  0
   -3.1317   -0.6744    0.0000 C    0  0  0  0  0  0  0  0  0  0  0  0
   -3.2822   -1.2762    0.0000 C    0  0  0  0  0  0  0  0  0  0  0  0
   -2.8362   -1.7074    0.0000 C    0  0  0  0  0  0  0  0  0  0  0  0
   -0.7934   -3.0807    0.0000 C    0  0  0  0  0  0  0  0  0  0  0  0
   -0.2088   -3.6118    0.0000 C    0  0  0  0  0  0  0  0  0  0  0  0
    0.5435   -3.3711    0.0000 C    0  0  0  0  0  0  0  0  0  0  0  0
    0.7111   -2.5993    0.0000 C    0  0  0  0  0  0  0  0  0  0  0  0
   -0.3765   -4.3837    0.0000 C    0  0  0  0  0  0  0  0  0  0  0  0
    0.2081   -4.9148    0.0000 C    0  0  0  0  0  0  0  0  0  0  0  0
    0.9604   -4.6741    0.0000 C    0  0  0  0  0  0  0  0  0  0  0  0
    1.1281   -3.9022    0.0000 C    0  0  0  0  0  0  0  0  0  0  0  0
   -1.9902    1.3140    0.0000 P    0  0  0  0  0  0  0  0  0  0  0  0
   -2.2930    0.5466    0.0000 N    0  0  0  0  0  0  0  0  0  0  0  0
   -2.1117    2.1300    0.0000 O    0  0  0  0  0  0  0  0  0  0  0  0
   -2.7576    1.6168    0.0000 O    0  0  0  0  0  0  0  0  0  0  0  0
   -3.1090    0.4251    0.0000 C    0  0  0  0  0  0  0  0  0  0  0  0
   -2.1644    2.8060    0.0000 C    0  0  0  0  0  0  0  0  0  0  0  0
   -3.4068    2.0346    0.0000 C    0  0  0  0  0  0  0  0  0  0  0  0
   -3.3546    2.8227    0.0000 C    0  0  0  0  0  0  0  0  0  0  0  0
   -2.6689    3.1668    0.0000 C    0  0  0  0  0  0  0  0  0  0  0  0
   -1.5996    3.0626    0.0000 C    0  0  0  0  0  0  0  0  0  0  0  0
   -1.5394    3.6800    0.0000 C    0  0  0  0  0  0  0  0  0  0  0  0
   -2.0440    4.0408    0.0000 C    0  0  0  0  0  0  0  0  0  0  0  0
   -2.6088    3.7842    0.0000 C    0  0  0  0  0  0  0  0  0  0  0  0
   -0.9746    3.9366    0.0000 C    0  0  0  0  0  0  0  0  0  0  0  0
   -0.9144    4.5540    0.0000 C    0  0  0  0  0  0  0  0  0  0  0  0
   -1.4190    4.9148    0.0000 C    0  0  0  0  0  0  0  0  0  0  0  0
   -1.9838    4.6582    0.0000 C    0  0  0  0  0  0  0  0  0  0  0  0
   -4.0111    3.2620    0.0000 C    0  0  0  0  0  0  0  0  0  0  0  0
   -4.7197    2.9131    0.0000 C    0  0  0  0  0  0  0  0  0  0  0  0
   -4.7718    2.1250    0.0000 C    0  0  0  0  0  0  0  0  0  0  0  0
   -4.1154    1.6858    0.0000 C    0  0  0  0  0  0  0  0  0  0  0  0
   -5.3761    3.3523    0.0000 C    0  0  0  0  0  0  0  0  0  0  0  0
   -6.0847    3.0034    0.0000 C    0  0  0  0  0  0  0  0  0  0  0  0
   -6.1369    2.2153    0.0000 C    0  0  0  0  0  0  0  0  0  0  0  0
   -5.4804    1.7761    0.0000 C    0  0  0  0  0  0  0  0  0  0  0  0
   -1.7797   -0.0994    0.0000 C    0  0  0  0  0  0  0  0  0  0  0  0
    0.0061    1.6329    0.0000 C    0  0  0  0  0  0  0  0  0  0  0  0
    0.4186    2.3474    0.0000 C    0  0  0  0  0  0  0  0  0  0  0  0
    0.8030    1.4194    0.0000 C    0  0  0  0  0  0  0  0  0  0  0  0
    1.0166    0.6225    0.0000 C    0  0  0  0  0  0  0  0  0  0  0  0
    1.5999    1.2059    0.0000 C    0  0  0  0  0  0  0  0  0  0  0  0
    1.3864    2.0028    0.0000 C    0  0  0  0  0  0  0  0  0  0  0  0
    2.1726    2.0843    0.0000 C    0  0  0  0  0  0  0  0  0  0  0  0
    5.4224   -0.3229    0.0000 B    0  5  0  0  0  0  0  0  0  0  0  0
    5.4224   -1.1479    0.0000 F    0  0  0  0  0  0  0  0  0  0  0  0
    4.7079    0.0896    0.0000 F    0  0  0  0  0  0  0  0  0  0  0  0
    6.1369    0.0896    0.0000 F    0  0  0  0  0  0  0  0  0  0  0  0
    5.4224    0.5021    0.0000 F    0  0  0  0  0  0  0  0  0  0  0  0
  1  2  1  0  0
  2  3  1  0  0
  2  4  1  0  0
  2  5  1  0  0
  3  6  1  0  0
  3  7  1  0  0
  4  8  1  0  0
  5  9  1  0  0
  9 10  2  0  0
 10 11  1  0  0
 11  8  2  0  0
  8 12  1  0  0
 12 13  2  0  0
 13 14  1  0  0
 14 15  2  0  0
 15 11  1  0  0
 13 16  1  0  0
 16 17  2  0  0
 17 18  1  0  0
 18 19  2  0  0
 19 14  1  0  0
 10 20  1  0  0
 20 21  2  0  0
 21 22  1  0  0
 22 23  2  0  0
 23  9  1  0  0
 21 24  1  0  0
 24 25  2  0  0
 25 26  1  0  0
 26 27  2  0  0
 27 22  1  0  0
 28 29  1  0  0
 28 30  1  0  0
 28 31  1  0  0
 29 32  1  0  0
 30 33  1  0  0
 31 34  1  0  0
 34 35  2  0  0
 35 36  1  0  0
 36 33  2  0  0
 33 37  1  0  0
 37 38  2  0  0
 38 39  1  0  0
 39 40  2  0  0
 40 36  1  0  0
 38 41  1  0  0
 41 42  2  0  0
 42 43  1  0  0
 43 44  2  0  0
 44 39  1  0  0
 35 45  1  0  0
 45 46  2  0  0
 46 47  1  0  0
 47 48  2  0  0
 48 34  1  0  0
 46 49  1  0  0
 49 50  2  0  0
 50 51  1  0  0
 51 52  2  0  0
 52 47  1  0  0
 29 53  1  0  0
 28  1  1  0  0
 54 55  1  0  0
 54 56  1  0  0
 56 57  1  0  0
 57 58  1  0  0
 58 59  1  0  0
 59 55  1  0  0
 56 60  1  0  0
 60 59  1  0  0
  1 57  1  0  0
  1 58  1  0  0
  1 54  1  0  0
  1 55  1  0  0
 61 62  1  0  0
 61 63  1  0  0
 61 64  1  0  0
 61 65  1  0  0
M  END
> <NMREDATA_VERSION>
1.1

> <NMREDATA_LEVEL>
0

> <NMREDATA_SOLVENT>
CD2Cl2

> <NMREDATA_TEMPERATURE>
297

> <NMREDATA_FORMULA>
C51H46BF4N2O4P2Rh

> <NMREDATA_SMILES>
F[B](F)(F)F.CN(P1(Oc2cc3ccccc3cc2-c2c(O1)cc1ccccc1c2)[Rh]123(C4C3C3C2C1C4C3)P1(Oc2cc3ccccc3cc2-c2c(O1)cc1ccccc1c2)N(C)C)C

> <NMREDATA_ASSIGNMENT>
Rh1, -268.00, 1

> <NMREDATA_1D_103Rh>
-268.00, L=Rh1

$$$$
RhMan0925_0171.mol
  ChemDraw12172517482D

 67 80  0  0  0  0  0  0  0  0999 V2000
    0.2770    0.3391    0.0000 Rh   0  0  0  0  0  0  0  0  0  0  0  0
    0.2770   -0.4859    0.0000 P    0  0  0  0  0  0  0  0  0  0  0  0
    1.1020   -0.4859    0.0000 N    0  0  0  0  0  0  0  0  0  0  0  0
   -0.4375   -0.8984    0.0000 O    0  0  0  0  0  0  0  0  0  0  0  0
    0.2770   -1.3109    0.0000 O    0  0  0  0  0  0  0  0  0  0  0  0
    1.5145    0.2285    0.0000 C    0  0  0  0  0  0  0  0  0  0  0  0
    1.5145   -1.2004    0.0000 C    0  0  0  0  0  0  0  0  0  0  0  0
   -1.0470   -1.1955    0.0000 C    0  0  0  0  0  0  0  0  0  0  0  0
    0.1265   -2.0682    0.0000 C    0  0  0  0  0  0  0  0  0  0  0  0
   -0.6257   -2.3089    0.0000 C    0  0  0  0  0  0  0  0  0  0  0  0
   -1.1975   -1.7974    0.0000 C    0  0  0  0  0  0  0  0  0  0  0  0
   -1.4930   -0.7644    0.0000 C    0  0  0  0  0  0  0  0  0  0  0  0
   -2.0894   -0.9350    0.0000 C    0  0  0  0  0  0  0  0  0  0  0  0
   -2.2398   -1.5368    0.0000 C    0  0  0  0  0  0  0  0  0  0  0  0
   -1.7939   -1.9680    0.0000 C    0  0  0  0  0  0  0  0  0  0  0  0
   -2.5353   -0.5038    0.0000 C    0  0  0  0  0  0  0  0  0  0  0  0
   -3.1317   -0.6744    0.0000 C    0  0  0  0  0  0  0  0  0  0  0  0
   -3.2822   -1.2762    0.0000 C    0  0  0  0  0  0  0  0  0  0  0  0
   -2.8362   -1.7074    0.0000 C    0  0  0  0  0  0  0  0  0  0  0  0
   -0.7934   -3.0807    0.0000 C    0  0  0  0  0  0  0  0  0  0  0  0
   -0.2088   -3.6118    0.0000 C    0  0  0  0  0  0  0  0  0  0  0  0
    0.5435   -3.3711    0.0000 C    0  0  0  0  0  0  0  0  0  0  0  0
    0.7111   -2.5993    0.0000 C    0  0  0  0  0  0  0  0  0  0  0  0
   -0.3765   -4.3837    0.0000 C    0  0  0  0  0  0  0  0  0  0  0  0
    0.2081   -4.9148    0.0000 C    0  0  0  0  0  0  0  0  0  0  0  0
    0.9604   -4.6741    0.0000 C    0  0  0  0  0  0  0  0  0  0  0  0
    1.1281   -3.9022    0.0000 C    0  0  0  0  0  0  0  0  0  0  0  0
   -1.9902    1.3140    0.0000 P    0  0  0  0  0  0  0  0  0  0  0  0
   -2.2930    0.5466    0.0000 N    0  0  0  0  0  0  0  0  0  0  0  0
   -2.1117    2.1300    0.0000 O    0  0  0  0  0  0  0  0  0  0  0  0
   -2.7576    1.6168    0.0000 O    0  0  0  0  0  0  0  0  0  0  0  0
   -3.1090    0.4251    0.0000 C    0  0  0  0  0  0  0  0  0  0  0  0
   -2.1644    2.8060    0.0000 C    0  0  0  0  0  0  0  0  0  0  0  0
   -3.4068    2.0346    0.0000 C    0  0  0  0  0  0  0  0  0  0  0  0
   -3.3546    2.8227    0.0000 C    0  0  0  0  0  0  0  0  0  0  0  0
   -2.6689    3.1668    0.0000 C    0  0  0  0  0  0  0  0  0  0  0  0
   -1.5996    3.0626    0.0000 C    0  0  0  0  0  0  0  0  0  0  0  0
   -1.5394    3.6800    0.0000 C    0  0  0  0  0  0  0  0  0  0  0  0
   -2.0440    4.0408    0.0000 C    0  0  0  0  0  0  0  0  0  0  0  0
   -2.6088    3.7842    0.0000 C    0  0  0  0  0  0  0  0  0  0  0  0
   -0.9746    3.9366    0.0000 C    0  0  0  0  0  0  0  0  0  0  0  0
   -0.9144    4.5540    0.0000 C    0  0  0  0  0  0  0  0  0  0  0  0
   -1.4190    4.9148    0.0000 C    0  0  0  0  0  0  0  0  0  0  0  0
   -1.9838    4.6582    0.0000 C    0  0  0  0  0  0  0  0  0  0  0  0
   -4.0111    3.2620    0.0000 C    0  0  0  0  0  0  0  0  0  0  0  0
   -4.7197    2.9131    0.0000 C    0  0  0  0  0  0  0  0  0  0  0  0
   -4.7718    2.1250    0.0000 C    0  0  0  0  0  0  0  0  0  0  0  0
   -4.1154    1.6858    0.0000 C    0  0  0  0  0  0  0  0  0  0  0  0
   -5.3761    3.3523    0.0000 C    0  0  0  0  0  0  0  0  0  0  0  0
   -6.0847    3.0034    0.0000 C    0  0  0  0  0  0  0  0  0  0  0  0
   -6.1369    2.2153    0.0000 C    0  0  0  0  0  0  0  0  0  0  0  0
   -5.4804    1.7761    0.0000 C    0  0  0  0  0  0  0  0  0  0  0  0
   -1.7797   -0.0994    0.0000 C    0  0  0  0  0  0  0  0  0  0  0  0
    0.0061    1.6329    0.0000 C    0  0  0  0  0  0  0  0  0  0  0  0
    0.4186    2.3474    0.0000 C    0  0  0  0  0  0  0  0  0  0  0  0
    0.8030    1.4194    0.0000 C    0  0  0  0  0  0  0  0  0  0  0  0
    1.0166    0.6225    0.0000 C    0  0  0  0  0  0  0  0  0  0  0  0
    1.5999    1.2059    0.0000 C    0  0  0  0  0  0  0  0  0  0  0  0
    1.3864    2.0028    0.0000 C    0  0  0  0  0  0  0  0  0  0  0  0
    2.1726    2.0843    0.0000 C    0  0  0  0  0  0  0  0  0  0  0  0
    5.4224   -0.3229    0.0000 Sb   0  5  0  0  0  0  0  0  0  0  0  0
    5.4224   -1.1479    0.0000 F    0  0  0  0  0  0  0  0  0  0  0  0
    4.7079    0.0896    0.0000 F    0  0  0  0  0  0  0  0  0  0  0  0
    6.1369    0.0896    0.0000 F    0  0  0  0  0  0  0  0  0  0  0  0
    5.4224    0.5021    0.0000 F    0  0  0  0  0  0  0  0  0  0  0  0
    6.1369   -0.7354    0.0000 F    0  0  0  0  0  0  0  0  0  0  0  0
    4.7079   -0.7354    0.0000 F    0  0  0  0  0  0  0  0  0  0  0  0
  1  2  1  0  0
  2  3  1  0  0
  2  4  1  0  0
  2  5  1  0  0
  3  6  1  0  0
  3  7  1  0  0
  4  8  1  0  0
  5  9  1  0  0
  9 10  2  0  0
 10 11  1  0  0
 11  8  2  0  0
  8 12  1  0  0
 12 13  2  0  0
 13 14  1  0  0
 14 15  2  0  0
 15 11  1  0  0
 13 16  1  0  0
 16 17  2  0  0
 17 18  1  0  0
 18 19  2  0  0
 19 14  1  0  0
 10 20  1  0  0
 20 21  2  0  0
 21 22  1  0  0
 22 23  2  0  0
 23  9  1  0  0
 21 24  1  0  0
 24 25  2  0  0
 25 26  1  0  0
 26 27  2  0  0
 27 22  1  0  0
 28 29  1  0  0
 28 30  1  0  0
 28 31  1  0  0
 29 32  1  0  0
 30 33  1  0  0
 31 34  1  0  0
 34 35  2  0  0
 35 36  1  0  0
 36 33  2  0  0
 33 37  1  0  0
 37 38  2  0  0
 38 39  1  0  0
 39 40  2  0  0
 40 36  1  0  0
 38 41  1  0  0
 41 42  2  0  0
 42 43  1  0  0
 43 44  2  0  0
 44 39  1  0  0
 35 45  1  0  0
 45 46  2  0  0
 46 47  1  0  0
 47 48  2  0  0
 48 34  1  0  0
 46 49  1  0  0
 49 50  2  0  0
 50 51  1  0  0
 51 52  2  0  0
 52 47  1  0  0
 29 53  1  0  0
 28  1  1  0  0
 54 55  1  0  0
 54 56  1  0  0
 56 57  1  0  0
 57 58  1  0  0
 58 59  1  0  0
 59 55  1  0  0
 56 60  1  0  0
 60 59  1  0  0
  1 57  1  0  0
  1 58  1  0  0
  1 54  1  0  0
  1 55  1  0  0
 61 62  1  0  0
 61 63  1  0  0
 61 64  1  0  0
 61 65  1  0  0
 61 66  1  0  0
 61 67  1  0  0
M  END
> <NMREDATA_VERSION>
1.1

> <NMREDATA_LEVEL>
0

> <NMREDATA_SOLVENT>
CD2Cl2

> <NMREDATA_TEMPERATURE>
297

> <NMREDATA_FORMULA>
C51H46F6N2O4P2RhSb

> <NMREDATA_SMILES>
F[Sb](F)(F)(F)(F)F.CN(P1(Oc2cc3ccccc3cc2-c2c(O1)cc1ccccc1c2)[Rh]123(C4C3C3C2C1C4C3)P1(Oc2cc3ccccc3cc2-c2c(O1)cc1ccccc1c2)N(C)C)C

> <NMREDATA_ASSIGNMENT>
Rh1, -620.00, 1

> <NMREDATA_1D_103Rh>
-620.00, L=Rh1

$$$$
RhMan0925_0172.mol
  ChemDraw12172517592D

 76 85  0  0  0  0  0  0  0  0999 V2000
    0.3071    0.3391    0.0000 Rh   0  0  0  0  0  0  0  0  0  0  0  0
    0.3071   -0.4859    0.0000 P    0  0  0  0  0  0  0  0  0  0  0  0
    1.1321   -0.4859    0.0000 N    0  0  0  0  0  0  0  0  0  0  0  0
   -0.4074   -0.8984    0.0000 O    0  0  0  0  0  0  0  0  0  0  0  0
    0.3071   -1.3109    0.0000 O    0  0  0  0  0  0  0  0  0  0  0  0
    1.5446    0.2285    0.0000 C    0  0  0  0  0  0  0  0  0  0  0  0
    1.5446   -1.2004    0.0000 C    0  0  0  0  0  0  0  0  0  0  0  0
   -1.0169   -1.1955    0.0000 C    0  0  0  0  0  0  0  0  0  0  0  0
    0.1566   -2.0682    0.0000 C    0  0  0  0  0  0  0  0  0  0  0  0
   -0.5957   -2.3089    0.0000 C    0  0  0  0  0  0  0  0  0  0  0  0
   -1.1674   -1.7974    0.0000 C    0  0  0  0  0  0  0  0  0  0  0  0
   -1.4629   -0.7644    0.0000 C    0  0  0  0  0  0  0  0  0  0  0  0
   -2.0593   -0.9350    0.0000 C    0  0  0  0  0  0  0  0  0  0  0  0
   -2.2097   -1.5368    0.0000 C    0  0  0  0  0  0  0  0  0  0  0  0
   -1.7638   -1.9680    0.0000 C    0  0  0  0  0  0  0  0  0  0  0  0
   -2.5052   -0.5038    0.0000 C    0  0  0  0  0  0  0  0  0  0  0  0
   -3.1016   -0.6744    0.0000 C    0  0  0  0  0  0  0  0  0  0  0  0
   -3.2521   -1.2762    0.0000 C    0  0  0  0  0  0  0  0  0  0  0  0
   -2.8061   -1.7074    0.0000 C    0  0  0  0  0  0  0  0  0  0  0  0
   -0.7633   -3.0807    0.0000 C    0  0  0  0  0  0  0  0  0  0  0  0
   -0.1787   -3.6118    0.0000 C    0  0  0  0  0  0  0  0  0  0  0  0
    0.5735   -3.3711    0.0000 C    0  0  0  0  0  0  0  0  0  0  0  0
    0.7412   -2.5993    0.0000 C    0  0  0  0  0  0  0  0  0  0  0  0
   -0.3464   -4.3837    0.0000 C    0  0  0  0  0  0  0  0  0  0  0  0
    0.2382   -4.9148    0.0000 C    0  0  0  0  0  0  0  0  0  0  0  0
    0.9905   -4.6741    0.0000 C    0  0  0  0  0  0  0  0  0  0  0  0
    1.1581   -3.9022    0.0000 C    0  0  0  0  0  0  0  0  0  0  0  0
   -1.9601    1.3140    0.0000 P    0  0  0  0  0  0  0  0  0  0  0  0
   -2.2629    0.5466    0.0000 N    0  0  0  0  0  0  0  0  0  0  0  0
   -2.0816    2.1300    0.0000 O    0  0  0  0  0  0  0  0  0  0  0  0
   -2.7275    1.6168    0.0000 O    0  0  0  0  0  0  0  0  0  0  0  0
   -3.0789    0.4251    0.0000 C    0  0  0  0  0  0  0  0  0  0  0  0
   -2.1343    2.8060    0.0000 C    0  0  0  0  0  0  0  0  0  0  0  0
   -3.3767    2.0346    0.0000 C    0  0  0  0  0  0  0  0  0  0  0  0
   -3.3245    2.8227    0.0000 C    0  0  0  0  0  0  0  0  0  0  0  0
   -2.6389    3.1668    0.0000 C    0  0  0  0  0  0  0  0  0  0  0  0
   -1.5695    3.0626    0.0000 C    0  0  0  0  0  0  0  0  0  0  0  0
   -1.5093    3.6800    0.0000 C    0  0  0  0  0  0  0  0  0  0  0  0
   -2.0139    4.0408    0.0000 C    0  0  0  0  0  0  0  0  0  0  0  0
   -2.5787    3.7842    0.0000 C    0  0  0  0  0  0  0  0  0  0  0  0
   -0.9445    3.9366    0.0000 C    0  0  0  0  0  0  0  0  0  0  0  0
   -0.8843    4.5540    0.0000 C    0  0  0  0  0  0  0  0  0  0  0  0
   -1.3889    4.9148    0.0000 C    0  0  0  0  0  0  0  0  0  0  0  0
   -1.9537    4.6582    0.0000 C    0  0  0  0  0  0  0  0  0  0  0  0
   -3.9810    3.2620    0.0000 C    0  0  0  0  0  0  0  0  0  0  0  0
   -4.6896    2.9131    0.0000 C    0  0  0  0  0  0  0  0  0  0  0  0
   -4.7417    2.1250    0.0000 C    0  0  0  0  0  0  0  0  0  0  0  0
   -4.0853    1.6858    0.0000 C    0  0  0  0  0  0  0  0  0  0  0  0
   -5.3460    3.3523    0.0000 C    0  0  0  0  0  0  0  0  0  0  0  0
   -6.0546    3.0034    0.0000 C    0  0  0  0  0  0  0  0  0  0  0  0
   -6.1068    2.2153    0.0000 C    0  0  0  0  0  0  0  0  0  0  0  0
   -5.4503    1.7761    0.0000 C    0  0  0  0  0  0  0  0  0  0  0  0
   -1.7497   -0.0994    0.0000 C    0  0  0  0  0  0  0  0  0  0  0  0
    1.0593    0.9709    0.0000 O    0  0  0  0  0  0  0  0  0  0  0  0
    1.7738    1.3834    0.0000 C    0  0  0  0  0  0  0  0  0  0  0  0
    1.7738    2.2084    0.0000 N    0  0  0  0  0  0  0  0  0  0  0  0
    0.7885    2.0843    0.0000 C    0  0  0  0  0  0  0  0  0  0  0  0
    2.4883    0.9709    0.0000 C    0  0  0  0  0  0  0  0  0  0  0  0
    0.3935    2.5783    0.0000 C    0  0  0  0  0  0  0  0  0  0  0  0
    0.0061    3.2578    0.0000 O    0  0  0  0  0  0  0  0  0  0  0  0
   -0.4034    2.3648    0.0000 O    0  0  0  0  0  0  0  0  0  0  0  0
    0.5895    3.8412    0.0000 C    0  0  0  0  0  0  0  0  0  0  0  0
    1.4505    1.6630    0.0000 C    0  0  0  0  0  0  0  0  0  0  0  0
    1.7844    0.7865    0.0000 C    0  0  0  0  0  0  0  0  0  0  0  0
    1.3719    0.0720    0.0000 C    0  0  0  0  0  0  0  0  0  0  0  0
    1.7844   -0.6425    0.0000 C    0  0  0  0  0  0  0  0  0  0  0  0
    2.6094   -0.6425    0.0000 C    0  0  0  0  0  0  0  0  0  0  0  0
    3.0219    0.0720    0.0000 C    0  0  0  0  0  0  0  0  0  0  0  0
    2.6094    0.7865    0.0000 C    0  0  0  0  0  0  0  0  0  0  0  0
    5.3923   -0.5035    0.0000 Sb   0  5  0  0  0  0  0  0  0  0  0  0
    5.3923   -1.3285    0.0000 F    0  0  0  0  0  0  0  0  0  0  0  0
    4.6778   -0.0910    0.0000 F    0  0  0  0  0  0  0  0  0  0  0  0
    6.1068   -0.0910    0.0000 F    0  0  0  0  0  0  0  0  0  0  0  0
    5.3923    0.3215    0.0000 F    0  0  0  0  0  0  0  0  0  0  0  0
    6.1068   -0.9160    0.0000 F    0  0  0  0  0  0  0  0  0  0  0  0
    4.6778   -0.9160    0.0000 F    0  0  0  0  0  0  0  0  0  0  0  0
  1  2  1  0  0
  2  3  1  0  0
  2  4  1  0  0
  2  5  1  0  0
  3  6  1  0  0
  3  7  1  0  0
  4  8  1  0  0
  5  9  1  0  0
  9 10  2  0  0
 10 11  1  0  0
 11  8  2  0  0
  8 12  1  0  0
 12 13  2  0  0
 13 14  1  0  0
 14 15  2  0  0
 15 11  1  0  0
 13 16  1  0  0
 16 17  2  0  0
 17 18  1  0  0
 18 19  2  0  0
 19 14  1  0  0
 10 20  1  0  0
 20 21  2  0  0
 21 22  1  0  0
 22 23  2  0  0
 23  9  1  0  0
 21 24  1  0  0
 24 25  2  0  0
 25 26  1  0  0
 26 27  2  0  0
 27 22  1  0  0
 28 29  1  0  0
 28 30  1  0  0
 28 31  1  0  0
 29 32  1  0  0
 30 33  1  0  0
 31 34  1  0  0
 34 35  2  0  0
 35 36  1  0  0
 36 33  2  0  0
 33 37  1  0  0
 37 38  2  0  0
 38 39  1  0  0
 39 40  2  0  0
 40 36  1  0  0
 38 41  1  0  0
 41 42  2  0  0
 42 43  1  0  0
 43 44  2  0  0
 44 39  1  0  0
 35 45  1  0  0
 45 46  2  0  0
 46 47  1  0  0
 47 48  2  0  0
 48 34  1  0  0
 46 49  1  0  0
 49 50  2  0  0
 50 51  1  0  0
 51 52  2  0  0
 52 47  1  0  0
 29 53  1  0  0
 28  1  1  0  0
 54 55  2  0  0
 54  1  1  0  0
 55 56  1  0  0
 56 57  1  0  0
 55 58  1  0  0
 57 59  1  0  0
 59 60  1  0  0
 59 61  2  0  0
 60 62  1  0  0
 57 63  2  0  0
 63 64  1  0  0
 64 65  2  0  0
 65 66  1  0  0
 66 67  2  0  0
 67 68  1  0  0
 68 69  2  0  0
 69 64  1  0  0
 70 71  1  0  0
 70 72  1  0  0
 70 73  1  0  0
 70 74  1  0  0
 70 75  1  0  0
 70 76  1  0  0
M  END
> <NMREDATA_VERSION>
1.1

> <NMREDATA_LEVEL>
0

> <NMREDATA_SOLVENT>
CD2Cl2

> <NMREDATA_TEMPERATURE>
183

> <NMREDATA_FORMULA>
C56H51F6N3O7P2RhSb

> <NMREDATA_SMILES>
F[Sb](F)(F)(F)(F)F.COC(=O)/C(=C\c1ccccc1)/N/C(=[O]/[Rh](P1(Oc2cc3ccccc3cc2-c2c(O1)cc1ccccc1c2)N(C)C)P1(Oc2cc3ccccc3cc2-c2c(O1)cc1ccccc1c2)N(C)C)/C

> <NMREDATA_ASSIGNMENT>
Rh1, 324.00, 1

> <NMREDATA_1D_103Rh>
324.00, L=Rh1

$$$$
RhMan0925_0173.mol
  ChemDraw12172518002D

 76 85  0  0  0  0  0  0  0  0999 V2000
    0.3071    0.2760    0.0000 Rh   0  0  0  0  0  0  0  0  0  0  0  0
    0.3071   -0.5490    0.0000 P    0  0  0  0  0  0  0  0  0  0  0  0
    1.1321   -0.5490    0.0000 N    0  0  0  0  0  0  0  0  0  0  0  0
   -0.4074   -0.9615    0.0000 O    0  0  0  0  0  0  0  0  0  0  0  0
    0.3071   -1.3740    0.0000 O    0  0  0  0  0  0  0  0  0  0  0  0
    1.5446    0.1655    0.0000 C    0  0  0  0  0  0  0  0  0  0  0  0
    1.5446   -1.2635    0.0000 C    0  0  0  0  0  0  0  0  0  0  0  0
   -1.0169   -1.2586    0.0000 C    0  0  0  0  0  0  0  0  0  0  0  0
    0.1566   -2.1312    0.0000 C    0  0  0  0  0  0  0  0  0  0  0  0
   -0.5957   -2.3719    0.0000 C    0  0  0  0  0  0  0  0  0  0  0  0
   -1.1674   -1.8604    0.0000 C    0  0  0  0  0  0  0  0  0  0  0  0
   -1.4629   -0.8274    0.0000 C    0  0  0  0  0  0  0  0  0  0  0  0
   -2.0593   -0.9980    0.0000 C    0  0  0  0  0  0  0  0  0  0  0  0
   -2.2097   -1.5998    0.0000 C    0  0  0  0  0  0  0  0  0  0  0  0
   -1.7638   -2.0310    0.0000 C    0  0  0  0  0  0  0  0  0  0  0  0
   -2.5052   -0.5668    0.0000 C    0  0  0  0  0  0  0  0  0  0  0  0
   -3.1016   -0.7374    0.0000 C    0  0  0  0  0  0  0  0  0  0  0  0
   -3.2521   -1.3392    0.0000 C    0  0  0  0  0  0  0  0  0  0  0  0
   -2.8061   -1.7704    0.0000 C    0  0  0  0  0  0  0  0  0  0  0  0
   -0.7633   -3.1438    0.0000 C    0  0  0  0  0  0  0  0  0  0  0  0
   -0.1787   -3.6749    0.0000 C    0  0  0  0  0  0  0  0  0  0  0  0
    0.5735   -3.4342    0.0000 C    0  0  0  0  0  0  0  0  0  0  0  0
    0.7412   -2.6623    0.0000 C    0  0  0  0  0  0  0  0  0  0  0  0
   -0.3464   -4.4467    0.0000 C    0  0  0  0  0  0  0  0  0  0  0  0
    0.2382   -4.9778    0.0000 C    0  0  0  0  0  0  0  0  0  0  0  0
    0.9905   -4.7371    0.0000 C    0  0  0  0  0  0  0  0  0  0  0  0
    1.1581   -3.9653    0.0000 C    0  0  0  0  0  0  0  0  0  0  0  0
   -1.9601    1.2509    0.0000 P    0  0  0  0  0  0  0  0  0  0  0  0
   -2.2629    0.4835    0.0000 N    0  0  0  0  0  0  0  0  0  0  0  0
   -2.0816    2.0669    0.0000 O    0  0  0  0  0  0  0  0  0  0  0  0
   -2.7275    1.5537    0.0000 O    0  0  0  0  0  0  0  0  0  0  0  0
   -3.0789    0.3620    0.0000 C    0  0  0  0  0  0  0  0  0  0  0  0
   -2.1343    2.7429    0.0000 C    0  0  0  0  0  0  0  0  0  0  0  0
   -3.3767    1.9716    0.0000 C    0  0  0  0  0  0  0  0  0  0  0  0
   -3.3245    2.7597    0.0000 C    0  0  0  0  0  0  0  0  0  0  0  0
   -2.6389    3.1038    0.0000 C    0  0  0  0  0  0  0  0  0  0  0  0
   -1.5695    2.9995    0.0000 C    0  0  0  0  0  0  0  0  0  0  0  0
   -1.5093    3.6169    0.0000 C    0  0  0  0  0  0  0  0  0  0  0  0
   -2.0139    3.9777    0.0000 C    0  0  0  0  0  0  0  0  0  0  0  0
   -2.5787    3.7212    0.0000 C    0  0  0  0  0  0  0  0  0  0  0  0
   -0.9445    3.8735    0.0000 C    0  0  0  0  0  0  0  0  0  0  0  0
   -0.8843    4.4909    0.0000 C    0  0  0  0  0  0  0  0  0  0  0  0
   -1.3889    4.8517    0.0000 C    0  0  0  0  0  0  0  0  0  0  0  0
   -1.9537    4.5952    0.0000 C    0  0  0  0  0  0  0  0  0  0  0  0
   -3.9810    3.1989    0.0000 C    0  0  0  0  0  0  0  0  0  0  0  0
   -4.6896    2.8500    0.0000 C    0  0  0  0  0  0  0  0  0  0  0  0
   -4.7417    2.0619    0.0000 C    0  0  0  0  0  0  0  0  0  0  0  0
   -4.0853    1.6227    0.0000 C    0  0  0  0  0  0  0  0  0  0  0  0
   -5.3460    3.2893    0.0000 C    0  0  0  0  0  0  0  0  0  0  0  0
   -6.0546    2.9404    0.0000 C    0  0  0  0  0  0  0  0  0  0  0  0
   -6.1068    2.1523    0.0000 C    0  0  0  0  0  0  0  0  0  0  0  0
   -5.4503    1.7131    0.0000 C    0  0  0  0  0  0  0  0  0  0  0  0
   -1.7497   -0.1624    0.0000 C    0  0  0  0  0  0  0  0  0  0  0  0
    1.0593    0.9079    0.0000 O    0  0  0  0  0  0  0  0  0  0  0  0
    1.7738    1.3204    0.0000 C    0  0  0  0  0  0  0  0  0  0  0  0
    1.7738    2.1454    0.0000 N    0  0  0  0  0  0  0  0  0  0  0  0
    0.7885    2.0212    0.0000 C    0  0  0  0  0  0  0  0  0  0  0  0
    2.4883    0.9079    0.0000 C    0  0  0  0  0  0  0  0  0  0  0  0
    0.0625    1.4922    0.0000 C    0  0  0  0  0  0  0  0  0  0  0  0
   -0.3248    2.1717    0.0000 O    0  0  0  0  0  0  0  0  0  0  0  0
   -0.7344    1.2786    0.0000 O    0  0  0  0  0  0  0  0  0  0  0  0
    0.2585    2.7551    0.0000 C    0  0  0  0  0  0  0  0  0  0  0  0
    1.1496    3.0142    0.0000 C    0  0  0  0  0  0  0  0  0  0  0  0
    1.7329    3.5976    0.0000 C    0  0  0  0  0  0  0  0  0  0  0  0
    2.5298    3.3841    0.0000 C    0  0  0  0  0  0  0  0  0  0  0  0
    3.1132    3.9674    0.0000 C    0  0  0  0  0  0  0  0  0  0  0  0
    2.8997    4.7643    0.0000 C    0  0  0  0  0  0  0  0  0  0  0  0
    2.1028    4.9778    0.0000 C    0  0  0  0  0  0  0  0  0  0  0  0
    1.5194    4.3945    0.0000 C    0  0  0  0  0  0  0  0  0  0  0  0
    5.3923   -0.5665    0.0000 Sb   0  5  0  0  0  0  0  0  0  0  0  0
    5.3923   -1.3915    0.0000 F    0  0  0  0  0  0  0  0  0  0  0  0
    4.6778   -0.1540    0.0000 F    0  0  0  0  0  0  0  0  0  0  0  0
    6.1068   -0.1540    0.0000 F    0  0  0  0  0  0  0  0  0  0  0  0
    5.3923    0.2585    0.0000 F    0  0  0  0  0  0  0  0  0  0  0  0
    6.1068   -0.9790    0.0000 F    0  0  0  0  0  0  0  0  0  0  0  0
    4.6778   -0.9790    0.0000 F    0  0  0  0  0  0  0  0  0  0  0  0
  1  2  1  0  0
  2  3  1  0  0
  2  4  1  0  0
  2  5  1  0  0
  3  6  1  0  0
  3  7  1  0  0
  4  8  1  0  0
  5  9  1  0  0
  9 10  2  0  0
 10 11  1  0  0
 11  8  2  0  0
  8 12  1  0  0
 12 13  2  0  0
 13 14  1  0  0
 14 15  2  0  0
 15 11  1  0  0
 13 16  1  0  0
 16 17  2  0  0
 17 18  1  0  0
 18 19  2  0  0
 19 14  1  0  0
 10 20  1  0  0
 20 21  2  0  0
 21 22  1  0  0
 22 23  2  0  0
 23  9  1  0  0
 21 24  1  0  0
 24 25  2  0  0
 25 26  1  0  0
 26 27  2  0  0
 27 22  1  0  0
 28 29  1  0  0
 28 30  1  0  0
 28 31  1  0  0
 29 32  1  0  0
 30 33  1  0  0
 31 34  1  0  0
 34 35  2  0  0
 35 36  1  0  0
 36 33  2  0  0
 33 37  1  0  0
 37 38  2  0  0
 38 39  1  0  0
 39 40  2  0  0
 40 36  1  0  0
 38 41  1  0  0
 41 42  2  0  0
 42 43  1  0  0
 43 44  2  0  0
 44 39  1  0  0
 35 45  1  0  0
 45 46  2  0  0
 46 47  1  0  0
 47 48  2  0  0
 48 34  1  0  0
 46 49  1  0  0
 49 50  2  0  0
 50 51  1  0  0
 51 52  2  0  0
 52 47  1  0  0
 29 53  1  0  0
 28  1  1  0  0
 54 55  2  0  0
 54  1  1  0  0
 55 56  1  0  0
 56 57  1  0  0
 55 58  1  0  0
 57 59  1  0  0
 59 60  1  0  0
 59 61  2  0  0
 60 62  1  0  0
 57 63  2  0  0
 63 64  1  0  0
 64 65  2  0  0
 65 66  1  0  0
 66 67  2  0  0
 67 68  1  0  0
 68 69  2  0  0
 69 64  1  0  0
 70 71  1  0  0
 70 72  1  0  0
 70 73  1  0  0
 70 74  1  0  0
 70 75  1  0  0
 70 76  1  0  0
M  END
> <NMREDATA_VERSION>
1.1

> <NMREDATA_LEVEL>
0

> <NMREDATA_SOLVENT>
CD2Cl2

> <NMREDATA_TEMPERATURE>
183

> <NMREDATA_FORMULA>
C56H51F6N3O7P2RhSb

> <NMREDATA_SMILES>
F[Sb](F)(F)(F)(F)F.COC(=O)/C(=C/c1ccccc1)/N/C(=[O]/[Rh](P1(Oc2cc3ccccc3cc2-c2c(O1)cc1ccccc1c2)N(C)C)P1(Oc2cc3ccccc3cc2-c2c(O1)cc1ccccc1c2)N(C)C)/C

> <NMREDATA_ASSIGNMENT>
Rh1, 617.00, 1

> <NMREDATA_1D_103Rh>
617.00, L=Rh1

$$$$
RhMan0925_0174.mol
  ChemDraw12172518052D

 75 89  0  0  0  0  0  0  0  0999 V2000
   -0.7311    0.3391    0.0000 Rh   0  0  0  0  0  0  0  0  0  0  0  0
   -0.7311   -0.4859    0.0000 P    0  0  0  0  0  0  0  0  0  0  0  0
    0.0939   -0.4859    0.0000 N    0  0  0  0  0  0  0  0  0  0  0  0
   -1.4455   -0.8984    0.0000 O    0  0  0  0  0  0  0  0  0  0  0  0
   -0.7311   -1.3109    0.0000 O    0  0  0  0  0  0  0  0  0  0  0  0
    0.5064    0.2285    0.0000 C    0  0  0  0  0  0  0  0  0  0  0  0
    0.5064   -1.2004    0.0000 C    0  0  0  0  0  0  0  0  0  0  0  0
   -2.0550   -1.1955    0.0000 C    0  0  0  0  0  0  0  0  0  0  0  0
   -0.8815   -2.0682    0.0000 C    0  0  0  0  0  0  0  0  0  0  0  0
   -1.6338   -2.3089    0.0000 C    0  0  0  0  0  0  0  0  0  0  0  0
   -2.2055   -1.7974    0.0000 C    0  0  0  0  0  0  0  0  0  0  0  0
   -2.5010   -0.7644    0.0000 C    0  0  0  0  0  0  0  0  0  0  0  0
   -3.0974   -0.9350    0.0000 C    0  0  0  0  0  0  0  0  0  0  0  0
   -3.2478   -1.5368    0.0000 C    0  0  0  0  0  0  0  0  0  0  0  0
   -2.8019   -1.9680    0.0000 C    0  0  0  0  0  0  0  0  0  0  0  0
   -3.5433   -0.5038    0.0000 C    0  0  0  0  0  0  0  0  0  0  0  0
   -4.1397   -0.6744    0.0000 C    0  0  0  0  0  0  0  0  0  0  0  0
   -4.2902   -1.2762    0.0000 C    0  0  0  0  0  0  0  0  0  0  0  0
   -3.8442   -1.7074    0.0000 C    0  0  0  0  0  0  0  0  0  0  0  0
   -1.8014   -3.0807    0.0000 C    0  0  0  0  0  0  0  0  0  0  0  0
   -1.2168   -3.6118    0.0000 C    0  0  0  0  0  0  0  0  0  0  0  0
   -0.4646   -3.3711    0.0000 C    0  0  0  0  0  0  0  0  0  0  0  0
   -0.2969   -2.5993    0.0000 C    0  0  0  0  0  0  0  0  0  0  0  0
   -1.3845   -4.3837    0.0000 C    0  0  0  0  0  0  0  0  0  0  0  0
   -0.7999   -4.9148    0.0000 C    0  0  0  0  0  0  0  0  0  0  0  0
   -0.0476   -4.6741    0.0000 C    0  0  0  0  0  0  0  0  0  0  0  0
    0.1200   -3.9022    0.0000 C    0  0  0  0  0  0  0  0  0  0  0  0
   -2.9982    1.3140    0.0000 P    0  0  0  0  0  0  0  0  0  0  0  0
   -3.3010    0.5466    0.0000 N    0  0  0  0  0  0  0  0  0  0  0  0
   -3.1197    2.1300    0.0000 O    0  0  0  0  0  0  0  0  0  0  0  0
   -3.7656    1.6168    0.0000 O    0  0  0  0  0  0  0  0  0  0  0  0
   -4.1170    0.4251    0.0000 C    0  0  0  0  0  0  0  0  0  0  0  0
   -3.1724    2.8060    0.0000 C    0  0  0  0  0  0  0  0  0  0  0  0
   -4.4148    2.0346    0.0000 C    0  0  0  0  0  0  0  0  0  0  0  0
   -4.3626    2.8227    0.0000 C    0  0  0  0  0  0  0  0  0  0  0  0
   -3.6770    3.1668    0.0000 C    0  0  0  0  0  0  0  0  0  0  0  0
   -2.6076    3.0626    0.0000 C    0  0  0  0  0  0  0  0  0  0  0  0
   -2.5474    3.6800    0.0000 C    0  0  0  0  0  0  0  0  0  0  0  0
   -3.0520    4.0408    0.0000 C    0  0  0  0  0  0  0  0  0  0  0  0
   -3.6168    3.7842    0.0000 C    0  0  0  0  0  0  0  0  0  0  0  0
   -1.9826    3.9366    0.0000 C    0  0  0  0  0  0  0  0  0  0  0  0
   -1.9225    4.5540    0.0000 C    0  0  0  0  0  0  0  0  0  0  0  0
   -2.4270    4.9148    0.0000 C    0  0  0  0  0  0  0  0  0  0  0  0
   -2.9918    4.6582    0.0000 C    0  0  0  0  0  0  0  0  0  0  0  0
   -5.0191    3.2620    0.0000 C    0  0  0  0  0  0  0  0  0  0  0  0
   -5.7277    2.9131    0.0000 C    0  0  0  0  0  0  0  0  0  0  0  0
   -5.7798    2.1250    0.0000 C    0  0  0  0  0  0  0  0  0  0  0  0
   -5.1234    1.6858    0.0000 C    0  0  0  0  0  0  0  0  0  0  0  0
   -6.3841    3.3523    0.0000 C    0  0  0  0  0  0  0  0  0  0  0  0
   -7.0927    3.0034    0.0000 C    0  0  0  0  0  0  0  0  0  0  0  0
   -7.1449    2.2153    0.0000 C    0  0  0  0  0  0  0  0  0  0  0  0
   -6.4884    1.7761    0.0000 C    0  0  0  0  0  0  0  0  0  0  0  0
   -2.7878   -0.0994    0.0000 C    0  0  0  0  0  0  0  0  0  0  0  0
    0.0212    0.9709    0.0000 C    0  0  0  0  0  0  0  0  0  0  0  0
    0.7966    0.6892    0.0000 C    0  0  0  0  0  0  0  0  0  0  0  0
    1.4283    1.2198    0.0000 C    0  0  0  0  0  0  0  0  0  0  0  0
    1.2846    2.0322    0.0000 C    0  0  0  0  0  0  0  0  0  0  0  0
    0.5092    2.3140    0.0000 C    0  0  0  0  0  0  0  0  0  0  0  0
   -0.1225    1.7833    0.0000 C    0  0  0  0  0  0  0  0  0  0  0  0
    1.1643   -0.0493    0.0000 C    0  0  0  0  0  0  0  0  0  0  0  0
    1.9612   -0.2629    0.0000 C    0  0  0  0  0  0  0  0  0  0  0  0
    2.5446    0.3205    0.0000 C    0  0  0  0  0  0  0  0  0  0  0  0
    2.1747   -1.0597    0.0000 N    0  0  0  0  0  0  0  0  0  0  0  0
    1.5914   -1.6431    0.0000 O    0  0  0  0  0  0  0  0  0  0  0  0
    1.8049   -2.4400    0.0000 C    0  0  0  0  0  0  0  0  0  0  0  0
    3.3415    0.1070    0.0000 O    0  0  0  0  0  0  0  0  0  0  0  0
    2.3310    1.1174    0.0000 O    0  0  0  0  0  0  0  0  0  0  0  0
    3.9248    0.6904    0.0000 C    0  0  0  0  0  0  0  0  0  0  0  0
    6.4304   -0.5637    0.0000 Sb   0  5  0  0  0  0  0  0  0  0  0  0
    6.4304   -1.3887    0.0000 F    0  0  0  0  0  0  0  0  0  0  0  0
    5.7159   -0.1512    0.0000 F    0  0  0  0  0  0  0  0  0  0  0  0
    7.1449   -0.1512    0.0000 F    0  0  0  0  0  0  0  0  0  0  0  0
    6.4304    0.2613    0.0000 F    0  0  0  0  0  0  0  0  0  0  0  0
    7.1449   -0.9762    0.0000 F    0  0  0  0  0  0  0  0  0  0  0  0
    5.7159   -0.9762    0.0000 F    0  0  0  0  0  0  0  0  0  0  0  0
  1  2  1  0  0
  2  3  1  0  0
  2  4  1  0  0
  2  5  1  0  0
  3  6  1  0  0
  3  7  1  0  0
  4  8  1  0  0
  5  9  1  0  0
  9 10  2  0  0
 10 11  1  0  0
 11  8  2  0  0
  8 12  1  0  0
 12 13  2  0  0
 13 14  1  0  0
 14 15  2  0  0
 15 11  1  0  0
 13 16  1  0  0
 16 17  2  0  0
 17 18  1  0  0
 18 19  2  0  0
 19 14  1  0  0
 10 20  1  0  0
 20 21  2  0  0
 21 22  1  0  0
 22 23  2  0  0
 23  9  1  0  0
 21 24  1  0  0
 24 25  2  0  0
 25 26  1  0  0
 26 27  2  0  0
 27 22  1  0  0
 28 29  1  0  0
 28 30  1  0  0
 28 31  1  0  0
 29 32  1  0  0
 30 33  1  0  0
 31 34  1  0  0
 34 35  2  0  0
 35 36  1  0  0
 36 33  2  0  0
 33 37  1  0  0
 37 38  2  0  0
 38 39  1  0  0
 39 40  2  0  0
 40 36  1  0  0
 38 41  1  0  0
 41 42  2  0  0
 42 43  1  0  0
 43 44  2  0  0
 44 39  1  0  0
 35 45  1  0  0
 45 46  2  0  0
 46 47  1  0  0
 47 48  2  0  0
 48 34  1  0  0
 46 49  1  0  0
 49 50  2  0  0
 50 51  1  0  0
 51 52  2  0  0
 52 47  1  0  0
 29 53  1  0  0
 28  1  1  0  0
 54  1  1  0  0
 54 55  1  0  0
 55 56  1  0  0
 56 57  1  0  0
 57 58  1  0  0
 58 59  1  0  0
 59 54  1  0  0
 55  1  1  0  0
 59  1  1  0  0
 58  1  1  0  0
 57  1  1  0  0
 56  1  1  0  0
 55 60  1  0  0
 60 61  1  0  0
 61 62  1  0  0
 61 63  1  0  0
 63 64  1  0  0
 64 65  1  0  0
 62 66  1  0  0
 62 67  2  0  0
 66 68  1  0  0
 69 70  1  0  0
 69 71  1  0  0
 69 72  1  0  0
 69 73  1  0  0
 69 74  1  0  0
 69 75  1  0  0
M  END
> <NMREDATA_VERSION>
1.1

> <NMREDATA_LEVEL>
0

> <NMREDATA_SOLVENT>
CD2Cl2

> <NMREDATA_TEMPERATURE>
297

> <NMREDATA_FORMULA>
C55H53F6N3O7P2RhSb

> <NMREDATA_SMILES>
F[Sb](F)(F)(F)(F)F.CONC(C(=O)OC)CC12C3[Rh]4562(C1C5C6C34)(P1(Oc2cc3ccccc3cc2-c2c(O1)cc1ccccc1c2)N(C)C)P1(Oc2cc3ccccc3cc2-c2c(O1)cc1ccccc1c2)N(C)C

> <NMREDATA_ASSIGNMENT>
Rh1, -849.00, 1

> <NMREDATA_1D_103Rh>
-849.00, L=Rh1

$$$$
RhMan0925_0175.mol
  ChemDraw12172518112D

 33 43  0  0  0  0  0  0  0  0999 V2000
    0.0931    0.6541    0.0000 Rh   0  0  0  0  0  0  0  0  0  0  0  0
   -0.5649    2.3605    0.0000 C    0  0  0  0  0  0  0  0  0  0  0  0
   -0.5649    1.5355    0.0000 C    0  0  0  0  0  0  0  0  0  0  0  0
    0.2197    1.2806    0.0000 C    0  0  0  0  0  0  0  0  0  0  0  0
    0.7047    1.9480    0.0000 C    0  0  0  0  0  0  0  0  0  0  0  0
    0.2197    2.6154    0.0000 C    0  0  0  0  0  0  0  0  0  0  0  0
    0.9751    0.9488    0.0000 C    0  0  0  0  0  0  0  0  0  0  0  0
    1.5261    2.0249    0.0000 C    0  0  0  0  0  0  0  0  0  0  0  0
    0.4747    3.4001    0.0000 C    0  0  0  0  0  0  0  0  0  0  0  0
   -1.2323    2.8454    0.0000 C    0  0  0  0  0  0  0  0  0  0  0  0
   -1.3478    1.2755    0.0000 C    0  0  0  0  0  0  0  0  0  0  0  0
   -1.1667   -0.4078    0.0000 C    0  0  0  0  0  0  0  0  0  0  0  0
   -1.1667   -1.2328    0.0000 C    0  0  0  0  0  0  0  0  0  0  0  0
   -0.3821   -1.4878    0.0000 C    0  0  0  0  0  0  0  0  0  0  0  0
    0.1029   -0.8203    0.0000 C    0  0  0  0  0  0  0  0  0  0  0  0
   -0.3821   -0.1529    0.0000 C    0  0  0  0  0  0  0  0  0  0  0  0
   -1.8341   -1.7177    0.0000 C    0  0  0  0  0  0  0  0  0  0  0  0
   -2.5878   -1.3822    0.0000 C    0  0  0  0  0  0  0  0  0  0  0  0
   -1.7479   -2.5382    0.0000 O    0  0  0  0  0  0  0  0  0  0  0  0
   -2.6740   -0.5617    0.0000 C    0  0  0  0  0  0  0  0  0  0  0  0
   -3.4277   -0.2261    0.0000 C    0  0  0  0  0  0  0  0  0  0  0  0
   -4.0952   -0.7111    0.0000 C    0  0  0  0  0  0  0  0  0  0  0  0
   -4.0089   -1.5315    0.0000 C    0  0  0  0  0  0  0  0  0  0  0  0
   -3.2552   -1.8671    0.0000 C    0  0  0  0  0  0  0  0  0  0  0  0
   -0.1271   -2.2724    0.0000 C    0  0  0  0  0  0  0  0  0  0  0  0
   -0.6792   -2.8855    0.0000 O    0  0  0  0  0  0  0  0  0  0  0  0
    0.6798   -2.4439    0.0000 C    0  0  0  0  0  0  0  0  0  0  0  0
    0.9348   -3.2285    0.0000 C    0  0  0  0  0  0  0  0  0  0  0  0
    1.7418   -3.4001    0.0000 C    0  0  0  0  0  0  0  0  0  0  0  0
    2.2938   -2.7870    0.0000 C    0  0  0  0  0  0  0  0  0  0  0  0
    2.0389   -2.0023    0.0000 C    0  0  0  0  0  0  0  0  0  0  0  0
    1.2319   -1.8308    0.0000 C    0  0  0  0  0  0  0  0  0  0  0  0
    4.0952    0.5939    0.0000 Cl   0  5  0  0  0  0  0  0  0  0  0  0
  2  3  1  0  0
  3  4  1  0  0
  4  5  1  0  0
  5  6  1  0  0
  6  2  1  0  0
  4  1  1  0  0
  3  1  1  0  0
  2  1  1  0  0
  5  1  1  0  0
  4  7  1  0  0
  5  8  1  0  0
  6  9  1  0  0
  2 10  1  0  0
  3 11  1  0  0
  6  1  1  0  0
 12 13  1  0  0
 13 14  1  0  0
 14 15  1  0  0
 15 16  1  0  0
 16 12  1  0  0
 13 17  1  0  0
 17 18  1  0  0
 17 19  2  0  0
 18 20  2  0  0
 20 21  1  0  0
 21 22  2  0  0
 22 23  1  0  0
 23 24  2  0  0
 24 18  1  0  0
 14 25  1  0  0
 25 26  2  0  0
 25 27  1  0  0
 27 28  2  0  0
 28 29  1  0  0
 29 30  2  0  0
 30 31  1  0  0
 31 32  2  0  0
 32 27  1  0  0
 14  1  1  0  0
 15  1  1  0  0
 16  1  1  0  0
 12  1  1  0  0
 13  1  1  0  0
M  END
> <NMREDATA_VERSION>
1.1

> <NMREDATA_LEVEL>
0

> <NMREDATA_SOLVENT>
CD2Cl2

> <NMREDATA_TEMPERATURE>
300

> <NMREDATA_FORMULA>
C29H29ClO2Rh

> <NMREDATA_SMILES>
O=C(C12C3[Rh]4567892(C1(C(=O)c1ccccc1)C5C34)C1(C8(C7(C6(C91C)C)C)C)C)c1ccccc1.Cl

> <NMREDATA_ASSIGNMENT>
Rh1, 8340.00, 1

> <NMREDATA_1D_103Rh>
8340.00, L=Rh1

$$$$
RhMan0925_0193.mol
  ChemDraw12182508112D

M  V30 COUNTS 47 58 0 0 1
 -1.064798 -0.960322  0.000000 Rh   0  0  0  0  0  0  0
 -0.239798 -0.960322  0.000000 P    0  0  0  0  0  0  0
 -1.546048  1.652179  0.000000 C    0  0  0  0  0  0  0
 -0.801692  2.007930  0.000000 C    0  0  0  0  0  0  0
 -0.737603  2.830437  0.000000 C    0  0  0  0  0  0  0
 -1.417870  3.297193  0.000000 C    0  0  0  0  0  0  0
 -2.162226  2.941442  0.000000 C    0  0  0  0  0  0  0
 -2.226316  2.118935  0.000000 C    0  0  0  0  0  0  0
 -2.842493  3.408199  0.000000 C    0  0  0  0  0  0  0
 -3.586850  3.052447  0.000000 C    0  0  0  0  0  0  0
 -3.650940  2.229941  0.000000 C    0  0  0  0  0  0  0
 -2.970672  1.763185  0.000000 C    0  0  0  0  0  0  0
 -3.034761  0.940677  0.000000 F    0  0  0  0  0  0  0
 -4.395295  1.874190  0.000000 F    0  0  0  0  0  0  0
 -4.267117  3.519204  0.000000 F    0  0  0  0  0  0  0
 -2.778405  4.230705  0.000000 F    0  0  0  0  0  0  0
 -1.064798 -0.135322  0.000000 Cl   0  0  0  0  0  0  0
 -1.848019 -1.750947  0.000000 C    0  0  0  0  0  0  0
 -1.634493 -2.547835  0.000000 C    0  0  0  0  0  0  0
 -2.431382 -2.761361  0.000000 C    0  0  0  0  0  0  0
 -2.644907 -1.964473  0.000000 C    0  0  0  0  0  0  0
 -3.145853 -2.348861  0.000000 C    0  0  0  0  0  0  0
 -3.359378 -1.551973  0.000000 C    0  0  0  0  0  0  0
 -2.644907 -1.139473  0.000000 C    0  0  0  0  0  0  0
 -2.432394 -1.441571  0.000000 C    0  0  0  0  0  0  0
  0.172702 -1.674792  0.000000 O    0  0  0  0  0  0  0
  0.557091 -0.746796  0.000000 O    0  0  0  0  0  0  0
  0.887173 -2.087292  0.000000 C    0  0  0  0  0  0  0
  1.684062 -1.048766  0.000000 C    0  0  0  0  0  0  0
  1.471548 -2.087292  0.000000 C    0  0  0  0  0  0  0
  2.054911 -1.503929  0.000000 C    0  0  0  0  0  0  0
  2.995456 -1.201958  0.000000 C    0  0  0  0  0  0  0
  3.083902 -0.444825  0.000000 C    0  0  0  0  0  0  0
  2.472427  0.010338  0.000000 C    0  0  0  0  0  0  0
  1.772507 -0.291633  0.000000 C    0  0  0  0  0  0  0
  3.606931 -1.657121  0.000000 C    0  0  0  0  0  0  0
  4.306850 -1.355150  0.000000 C    0  0  0  0  0  0  0
  4.395295 -0.598017  0.000000 C    0  0  0  0  0  0  0
  3.783821 -0.142854  0.000000 C    0  0  0  0  0  0  0
  0.474673 -2.801763  0.000000 C    0  0  0  0  0  0  0
  0.887173 -3.516234  0.000000 C    0  0  0  0  0  0  0
  1.712173 -3.516234  0.000000 C    0  0  0  0  0  0  0
  2.124673 -2.801763  0.000000 C    0  0  0  0  0  0  0
  2.124673 -4.230705  0.000000 C    0  0  0  0  0  0  0
  2.949673 -4.230705  0.000000 C    0  0  0  0  0  0  0
  3.362173 -3.516234  0.000000 C    0  0  0  0  0  0  0
  2.949673 -2.801763  0.000000 C    0  0  0  0  0  0  0
  1  2  1  0  0  0  0
  2  3  1  0  0  0  0
  3  4  2  0  0  0  0
  4  5  1  0  0  0  0
  5  6  2  0  0  0  0
  6  7  1  0  0  0  0
  7  8  2  0  0  0  0
  8  3  1  0  0  0  0
  7  9  1  0  0  0  0
  9 10  2  0  0  0  0
 10 11  1  0  0  0  0
 11 12  2  0  0  0  0
 12  8  1  0  0  0  0
 12 13  1  0  0  0  0
 11 14  1  0  0  0  0
 10 15  1  0  0  0  0
  9 16  1  0  0  0  0
  1 13  9  0  0  0  0
  1 17  1  6  0  0  0
 18 19  1  0  0  0  0
 19 20  1  0  0  0  0
 18 21  1  0  0  0  0
 20 22  1  0  0  0  0
 21 23  1  0  0  0  0
 23 24  1  0  0  0  0
 22 25  1  0  0  0  0
 25 24  1  0  0  0  0
 24  1  1  0  0  0  0
 25  1  1  0  0  0  0
 19  1  1  0  0  0  0
 18  1  1  0  0  0  0
  2 26  1  0  0  0  0
  2 27  1  0  0  0  0
 26 28  1  0  0  0  0
 29 27  1  0  0  0  0
 28 30  2  0  0  0  0
 30 31  1  0  0  0  0
 31 29  2  0  0  0  0
 31 32  1  0  0  0  0
 32 33  2  0  0  0  0
 33 34  1  0  0  0  0
 34 35  2  0  0  0  0
 35 29  1  0  0  0  0
 32 36  1  0  0  0  0
 36 37  2  0  0  0  0
 37 38  1  0  0  0  0
 38 39  2  0  0  0  0
 39 33  1  0  0  0  0
 28 40  1  0  0  0  0
 40 41  2  0  0  0  0
 41 42  1  0  0  0  0
 42 43  2  0  0  0  0
 43 30  1  0  0  0  0
 42 44  1  0  0  0  0
 44 45  2  0  0  0  0
 45 46  1  0  0  0  0
 46 47  2  0  0  0  0
 47 43  1  0  0  0  0
M  END
> <NMREDATA_VERSION>
1.1

> <NMREDATA_LEVEL>
0

> <NMREDATA_SOLVENT>
CD2Cl2

> <NMREDATA_FORMULA>
C38H28ClF4O2PRh

> <NMREDATA_SMILES>
Fc1c(F)c(F)c2c3c1cccc3P1([Rh]345([F]2)(Cl)C2C5CCC3C4CC2)Oc2ccc3c(c2-c2c(O1)ccc1c2cccc1)cccc3

> <NMREDATA_ASSIGNMENT>
Rh1, 325.00, 1

> <NMREDATA_1D_103Rh>
325.00, L=Rh1

$$$$
RhMan0925_0195.mol
  ChemDraw12182508162D

M  V30 COUNTS 12 10 0 0 0
 -1.847354  0.152406  0.000000 Rh   0  1  0  0  0  0  0
 -1.763711  0.977407  0.000000 O    0  0  0  0  0  0  0
 -1.847354 -0.672594  0.000000 O    0  0  0  0  0  0  0
 -1.263991  0.735770  0.000000 O    0  0  0  0  0  0  0
 -1.263991 -0.430957  0.000000 O    0  0  0  0  0  0  0
 -2.430718 -0.430957  0.000000 O    0  0  0  0  0  0  0
 -2.478182  0.564907  0.000000 O    0  0  0  0  0  0  0
  1.763711 -0.152407  0.000000 S    0  0  0  0  0  0  0
  2.478182  0.260093  0.000000 O    0  5  0  0  0  0  0
  1.049240  0.260093  0.000000 O    0  5  0  0  0  0  0
  1.763711 -0.977407  0.000000 O    0  0  0  0  0  0  0
  1.763711  0.672594  0.000000 O    0  0  0  0  0  0  0
  1  2  1  0  0  0  0
  1  3  1  0  0  0  0
  1  4  1  0  0  0  0
  1  5  1  0  0  0  0
  1  6  1  0  0  0  0
  1  7  1  0  0  0  0
  8  9  1  0  0  0  0
  8 10  1  0  0  0  0
  8 11  2  0  0  0  0
  8 12  2  0  0  0  0
M  END
> <NMREDATA_VERSION>
1.1

> <NMREDATA_LEVEL>
0

> <NMREDATA_SOLVENT>
H2O/H2SO4

> <NMREDATA_FORMULA>
H8O10RhS

> <NMREDATA_SMILES>
O[Rh](O)(O)(O)(O)O.OS(=O)(=O)O

> <NMREDATA_ASSIGNMENT>
Rh1, 9901.00, 1

> <NMREDATA_1D_103Rh>
9901.00, L=Rh1

$$$$
RhMan0925_0198.mol
  ChemDraw12182508232D

M  V30 COUNTS 22 24 0 0 0
  0.099488  0.150986  0.000000 Rh   0  0  0  0  0  0  0
 -0.483876  0.734348  0.000000 O    0  0  0  0  0  0  0
  0.682850  0.734348  0.000000 O    0  0  0  0  0  0  0
  0.813958 -0.261514  0.000000 O    0  0  0  0  0  0  0
  0.099488 -0.674014  0.000000 O    0  0  0  0  0  0  0
 -0.614984 -0.261514  0.000000 O    0  0  0  0  0  0  0
 -0.725512  0.150986  0.000000 O    0  0  0  0  0  0  0
 -0.483876  1.559348  0.000000 C    0  0  0  0  0  0  0
  0.682850  1.559348  0.000000 C    0  0  0  0  0  0  0
 -0.031621  1.971848  0.000000 C    0  0  0  0  0  0  0
  1.397322  1.971848  0.000000 C    0  0  0  0  0  0  0
 -1.238624  1.892486  0.000000 C    0  0  0  0  0  0  0
 -1.198347 -0.844877  0.000000 C    0  0  0  0  0  0  0
 -1.439984 -0.261514  0.000000 C    0  0  0  0  0  0  0
 -2.023347 -0.844877  0.000000 C    0  0  0  0  0  0  0
 -0.882633 -1.607078  0.000000 C    0  0  0  0  0  0  0
 -1.942212  0.393002  0.000000 C    0  0  0  0  0  0  0
  0.511988 -1.388486  0.000000 C    0  0  0  0  0  0  0
  1.226458 -0.975986  0.000000 C    0  0  0  0  0  0  0
  1.226458 -1.800986  0.000000 C    0  0  0  0  0  0  0
  2.023347 -0.762460  0.000000 C    0  0  0  0  0  0  0
 -0.071376 -1.971848  0.000000 C    0  0  0  0  0  0  0
  1  2  1  0  0  0  0
  1  3  1  0  0  0  0
  1  4  1  0  0  0  0
  1  5  1  0  0  0  0
  1  6  1  0  0  0  0
  1  7  1  0  0  0  0
  2  8  1  0  0  0  0
  3  9  1  0  0  0  0
  9 10  4  0  0  0  0
  8 10  4  0  0  0  0
  9 11  1  0  0  0  0
  8 12  1  0  0  0  0
  6 13  1  0  0  0  0
  7 14  1  0  0  0  0
 13 15  4  0  0  0  0
 14 15  4  0  0  0  0
 13 16  1  0  0  0  0
 14 17  1  0  0  0  0
  5 18  1  0  0  0  0
  4 19  1  0  0  0  0
 19 20  4  0  0  0  0
 18 20  4  0  0  0  0
 19 21  1  0  0  0  0
 18 22  1  0  0  0  0
M  END
> <NMREDATA_VERSION>
1.1

> <NMREDATA_LEVEL>
0

> <NMREDATA_SOLVENT>
CD2Cl2

> <NMREDATA_FORMULA>
C15H24O6Rh

> <NMREDATA_SMILES>
CC1C=C(C)O[Rh]23(O1)(OC(C)C=C(O3)C)OC(C)C=C(O2)C

> <NMREDATA_ASSIGNMENT>
Rh1, 8349.00, 1

> <NMREDATA_1D_103Rh>
8349.00, L=Rh1

$$$$
RhMan0925_0199.mol
  ChemDraw12182508242D

M  V30 COUNTS 7 6 0 0 0
     0.000     0.000     0.000 Rh   0  0  0  0  0  0  0
     0.000     0.825     0.000 C    0  0  0  0  0  0  0
     0.000    -0.825     0.000 C    0  0  0  0  0  0  0
     0.825     0.000     0.000 Cl   0  0  0  0  0  0  0
    -0.825     0.000     0.000 Cl   0  0  0  0  0  0  0
     0.000     1.650     0.000 O    0  0  0  0  0  0  0
     0.000    -1.650     0.000 O    0  0  0  0  0  0  0
  1  2  1  0  0  0  0
  1  3  1  0  0  0  0
  1  4  1  0  0  0  0
  1  5  1  0  0  0  0
  2  6  3  0  0  0  0
  3  7  3  0  0  0  0
M  END
> <NMREDATA_VERSION>
1.1

> <NMREDATA_LEVEL>
0

> <NMREDATA_SOLVENT>
CD2Cl2

> <NMREDATA_FORMULA>
C2Cl2O2Rh

> <NMREDATA_SMILES>
[Rh].Cl.Cl.O.O.C.C

> <NMREDATA_ASSIGNMENT>
Rh1, 118.00, 1

> <NMREDATA_1D_103Rh>
118.00, L=Rh1

$$$$
RhMan0925_0200.mol
  ChemDraw12182508272D

M  V30 COUNTS 12 10 0 0 0
 -1.847354  0.152406  0.000000 Rh   0  1  0  0  0  0  0
 -1.763710  0.977407  0.000000 O    0  0  0  0  0  0  0
 -1.847354 -0.672593  0.000000 O    0  0  0  0  0  0  0
 -1.263991  0.735770  0.000000 O    0  0  0  0  0  0  0
 -1.263991 -0.430957  0.000000 O    0  0  0  0  0  0  0
 -2.430719 -0.430957  0.000000 O    0  0  0  0  0  0  0
 -2.478182  0.564907  0.000000 O    0  0  0  0  0  0  0
  1.763710 -0.152407  0.000000 S    0  0  0  0  0  0  0
  2.478182  0.260093  0.000000 O    0  5  0  0  0  0  0
  1.049240  0.260093  0.000000 O    0  5  0  0  0  0  0
  1.763710 -0.977407  0.000000 O    0  0  0  0  0  0  0
  1.763710  0.672595  0.000000 O    0  0  0  0  0  0  0
  1  2  1  0  0  0  0
  1  3  1  0  0  0  0
  1  4  1  0  0  0  0
  1  5  1  0  0  0  0
  1  6  1  0  0  0  0
  1  7  1  0  0  0  0
  8  9  1  0  0  0  0
  8 10  1  0  0  0  0
  8 11  2  0  0  0  0
  8 12  2  0  0  0  0
M  END
> <NMREDATA_VERSION>
1.1

> <NMREDATA_LEVEL>
0

> <NMREDATA_SOLVENT>
H2O/H2SO4

> <NMREDATA_TEMPERATURE>
300

> <NMREDATA_FORMULA>
H8O10RhS

> <NMREDATA_SMILES>
O[Rh](O)(O)(O)(O)O.OS(=O)(=O)O

> <NMREDATA_ASSIGNMENT>
Rh1, 9889.00, 1

> <NMREDATA_1D_103Rh>
9889.00, L=Rh1

$$$$
RhMan0925_0201.mol
  ChemDraw12182508292D

M  V30 COUNTS 12 11 0 0 0
  0.715387 -2.080493  0.000000 Rh   0  1  0  0  0  0  0
 -0.094720  1.838259  0.000000 O    0  0  0  0  0  0  0
  0.715387 -2.905492  0.000000 O    0  0  0  0  0  0  0
  1.298750 -2.663856  0.000000 O    0  0  0  0  0  0  0
  0.132023 -2.663856  0.000000 O    0  0  0  0  0  0  0
  0.084560 -1.667992  0.000000 O    0  0  0  0  0  0  0
  1.081573 -2.905493  0.000000 C    0  0  0  0  0  0  0
  1.494073 -1.366022  0.000000 O    0  0  0  0  0  0  0
 -0.877905  2.097576  0.000000 S    0  0  0  0  0  0  0
 -1.044922  2.905493  0.000000 O    0  0  0  0  0  0  0
 -1.494073  1.548977  0.000000 O    0  5  0  0  0  0  0
 -0.710888  1.289659  0.000000 O    0  0  0  0  0  0  0
  1  2  1  0  0  0  0
  1  3  1  0  0  0  0
  1  4  1  0  0  0  0
  1  5  1  0  0  0  0
  1  6  1  0  0  0  0
  1  7  1  0  0  0  0
  1  8  1  0  0  0  0
  2  9  1  0  0  0  0
  9 10  2  0  0  0  0
  9 11  1  0  0  0  0
  9 12  2  0  0  0  0
M  END
> <NMREDATA_VERSION>
1.1

> <NMREDATA_LEVEL>
0

> <NMREDATA_SOLVENT>
H2O/H2SO4

> <NMREDATA_TEMPERATURE>
300

> <NMREDATA_FORMULA>
CH9O9RhS

> <NMREDATA_SMILES>
OS(=O)(=O)O[Rh](O)(O)(O)(O)(O)C

> <NMREDATA_ASSIGNMENT>
Rh1, 9883.00, 1

> <NMREDATA_1D_103Rh>
9883.00, L=Rh1

$$$$
RhMan0925_0202.mol
  ChemDraw12182508302D

M  V30 COUNTS 11 10 0 0 0
  0.813049 -2.080493  0.000000 Rh   0  1  0  0  0  0  0
  0.002942  1.838259  0.000000 O    0  0  0  0  0  0  0
  0.813049 -2.905492  0.000000 O    0  0  0  0  0  0  0
  1.396412 -2.663856  0.000000 O    0  0  0  0  0  0  0
  0.229684 -2.663856  0.000000 O    0  0  0  0  0  0  0
  0.182221 -1.667992  0.000000 O    0  0  0  0  0  0  0
  1.179234 -2.905493  0.000000 C    0  0  0  0  0  0  0
 -0.780243  2.097576  0.000000 S    0  0  0  0  0  0  0
 -0.947261  2.905493  0.000000 O    0  0  0  0  0  0  0
 -1.396412  1.548977  0.000000 O    0  5  0  0  0  0  0
 -0.613226  1.289659  0.000000 O    0  0  0  0  0  0  0
  1  2  1  0  0  0  0
  1  3  1  0  0  0  0
  1  4  1  0  0  0  0
  1  5  1  0  0  0  0
  1  6  1  0  0  0  0
  1  7  1  0  0  0  0
  2  8  1  0  0  0  0
  8  9  2  0  0  0  0
  8 10  1  0  0  0  0
  8 11  2  0  0  0  0
M  END
> <NMREDATA_VERSION>
1.1

> <NMREDATA_LEVEL>
0

> <NMREDATA_SOLVENT>
H2O/H2SO4

> <NMREDATA_TEMPERATURE>
300

> <NMREDATA_FORMULA>
CH8O8RhS

> <NMREDATA_SMILES>
C[Rh](OS(=O)(=O)O)(O)(O)(O)O

> <NMREDATA_ASSIGNMENT>
Rh1, 9813.00, 1

> <NMREDATA_1D_103Rh>
9813.00, L=Rh1

$$$$
RhMan0925_0203.mol
  ChemDraw12182508312D

M  V30 COUNTS 13 12 0 0 0
  0.390259 -1.461744  0.000000 Rh   0  1  0  0  0  0  0
 -0.419848  2.457008  0.000000 O    0  0  0  0  0  0  0
  0.390259 -2.286743  0.000000 O    0  0  0  0  0  0  0
  0.802759 -0.747273  0.000000 O    0  0  0  0  0  0  0
 -0.240569 -1.049242  0.000000 O    0  0  0  0  0  0  0
 -1.203033  2.716326  0.000000 S    0  0  0  0  0  0  0
 -1.370050  3.524243  0.000000 O    0  0  0  0  0  0  0
 -1.819201  2.167726  0.000000 O    0  5  0  0  0  0  0
 -1.036016  1.908408  0.000000 O    0  0  0  0  0  0  0
  1.104730 -2.699243  0.000000 S    0  0  0  0  0  0  0
  1.104730 -3.524243  0.000000 O    0  0  0  0  0  0  0
  1.819201 -2.286743  0.000000 O    0  5  0  0  0  0  0
  1.819201 -3.111743  0.000000 O    0  0  0  0  0  0  0
  1  2  1  0  0  0  0
  1  3  1  0  0  0  0
  1  4  1  0  0  0  0
  1  5  1  0  0  0  0
  2  6  1  0  0  0  0
  6  7  2  0  0  0  0
  6  8  1  0  0  0  0
  6  9  2  0  0  0  0
  3 10  1  0  0  0  0
 10 11  2  0  0  0  0
 10 12  1  0  0  0  0
 10 13  2  0  0  0  0
M  END
> <NMREDATA_VERSION>
1.1

> <NMREDATA_LEVEL>
0

> <NMREDATA_SOLVENT>
H2O/H2SO4

> <NMREDATA_TEMPERATURE>
300

> <NMREDATA_FORMULA>
H4O10RhS2

> <NMREDATA_SMILES>
O[Rh](OS(=O)(=O)O)(OS(=O)(=O)O)O

> <NMREDATA_ASSIGNMENT>
Rh1, 9742.00, 1

> <NMREDATA_1D_103Rh>
9742.00, L=Rh1

$$$$
RhMan0925_0204.mol
  ChemDraw12182508322D

M  V30 COUNTS 13 12 0 0 0
  0.813049 -2.101364  0.000000 Rh   0  1  0  0  0  0  0
  0.002942  1.817389  0.000000 O    0  0  0  0  0  0  0
  1.225549 -1.386892  0.000000 O    0  0  0  0  0  0  0
  1.396412 -2.684726  0.000000 O    0  0  0  0  0  0  0
 -0.780243  2.076706  0.000000 S    0  0  0  0  0  0  0
 -0.947261  2.884623  0.000000 O    0  0  0  0  0  0  0
 -1.396412  1.528107  0.000000 O    0  5  0  0  0  0  0
 -0.613226  1.268789  0.000000 O    0  0  0  0  0  0  0
  0.086928 -2.492993  0.000000 O    0  0  0  0  0  0  0
 -0.615294 -2.059969  0.000000 S    0  0  0  0  0  0  0
 -1.341414 -2.451598  0.000000 O    0  5  0  0  0  0  0
 -0.591394 -1.235315  0.000000 O    0  0  0  0  0  0  0
 -0.639193 -2.884623  0.000000 O    0  0  0  0  0  0  0
  1  2  1  0  0  0  0
  1  3  1  0  0  0  0
  1  4  1  0  0  0  0
  2  5  1  0  0  0  0
  5  6  2  0  0  0  0
  5  7  1  0  0  0  0
  5  8  2  0  0  0  0
  1  9  1  0  0  0  0
  9 10  1  0  0  0  0
 10 11  1  0  0  0  0
 10 12  2  0  0  0  0
 10 13  2  0  0  0  0
M  END
> <NMREDATA_VERSION>
1.1

> <NMREDATA_LEVEL>
0

> <NMREDATA_SOLVENT>
H2O/H2SO4

> <NMREDATA_TEMPERATURE>
300

> <NMREDATA_FORMULA>
H4O10RhS2

> <NMREDATA_SMILES>
O[Rh](OS(=O)(=O)O)(OS(=O)(=O)O)O

> <NMREDATA_ASSIGNMENT>
Rh1, 9692.00, 1

> <NMREDATA_1D_103Rh>
9692.00, L=Rh1

$$$$
RhMan0925_0205.mol
  ChemDraw12182508332D

M  V30 COUNTS 16 15 0 0 0
  0.521367 -1.511186  0.000000 Rh   0  1  0  0  0  0  0
 -0.288740  2.407566  0.000000 O    0  0  0  0  0  0  0
  1.104730 -2.094549  0.000000 O    0  0  0  0  0  0  0
 -1.071925  2.666883  0.000000 S    0  0  0  0  0  0  0
 -1.238942  3.474801  0.000000 O    0  0  0  0  0  0  0
 -1.688093  2.118284  0.000000 O    0  5  0  0  0  0  0
 -0.904908  1.858966  0.000000 O    0  0  0  0  0  0  0
 -0.204754 -1.902815  0.000000 O    0  0  0  0  0  0  0
 -0.906976 -1.469792  0.000000 S    0  0  0  0  0  0  0
 -1.633096 -1.861421  0.000000 O    0  5  0  0  0  0  0
 -0.883076 -0.645138  0.000000 O    0  0  0  0  0  0  0
 -0.930875 -2.294445  0.000000 O    0  0  0  0  0  0  0
  0.891204 -2.891438  0.000000 S    0  0  0  0  0  0  0
  1.474568 -3.474801  0.000000 O    0  0  0  0  0  0  0
  0.094316 -3.104963  0.000000 O    0  5  0  0  0  0  0
  1.688093 -2.677912  0.000000 O    0  0  0  0  0  0  0
  1  2  1  0  0  0  0
  1  3  1  0  0  0  0
  2  4  1  0  0  0  0
  4  5  2  0  0  0  0
  4  6  1  0  0  0  0
  4  7  2  0  0  0  0
  1  8  1  0  0  0  0
  8  9  1  0  0  0  0
  9 10  1  0  0  0  0
  9 11  2  0  0  0  0
  9 12  2  0  0  0  0
  3 13  1  0  0  0  0
 13 14  2  0  0  0  0
 13 15  1  0  0  0  0
 13 16  2  0  0  0  0
M  END
> <NMREDATA_VERSION>
1.1

> <NMREDATA_LEVEL>
0

> <NMREDATA_SOLVENT>
H2O/H2SO4

> <NMREDATA_TEMPERATURE>
300

> <NMREDATA_FORMULA>
H3O12RhS3

> <NMREDATA_SMILES>
OS(=O)(=O)O[Rh](OS(=O)(=O)O)OS(=O)(=O)O

> <NMREDATA_ASSIGNMENT>
Rh1, 9650.00, 1

> <NMREDATA_1D_103Rh>
9650.00, L=Rh1

$$$$
RhMan0925_0206.mol
  ChemDraw12182508372D

M  V30 COUNTS 19 18 6 0 0
  0.000000  0.000000  0.000000 Rh   0  7  0  0  0  0  0
  0.000000 -0.825000  0.000000 N    0  3  0  0  0  0  0
 -0.711990 -1.236068  0.000000 O    0  0  0  0  0  0  0
  0.711991 -1.236068  0.000000 O    0  5  0  0  0  0  0
 -0.714470  0.412500  0.000000 N    0  3  0  0  0  0  0
 -0.714470  1.234636  0.000000 O    0  0  0  0  0  0  0
 -1.426461  0.001432  0.000000 O    0  5  0  0  0  0  0
  0.796889  0.213526  0.000000 N    0  3  0  0  0  0  0
  1.378227 -0.367812  0.000000 O    0  0  0  0  0  0  0
  1.009673  1.007648  0.000000 O    0  5  0  0  0  0  0
  0.000000  0.825000  0.000000 N    0  3  0  0  0  0  0
  0.711991  1.236068  0.000000 O    0  0  0  0  0  0  0
 -0.711990  1.236068  0.000000 O    0  5  0  0  0  0  0
  0.714471 -0.412500  0.000000 N    0  3  0  0  0  0  0
  0.714471 -1.234635  0.000000 O    0  0  0  0  0  0  0
  1.426461 -0.001432  0.000000 O    0  5  0  0  0  0  0
 -0.714470 -0.412500  0.000000 N    0  3  0  0  0  0  0
 -1.426461 -0.001432  0.000000 O    0  0  0  0  0  0  0
 -0.714470 -1.234635  0.000000 O    0  5  0  0  0  0  0
  2  3  2  0  0  0  0
  2  4  1  0  0  0  0
  1  2  1  0  0  0  0
  5  6  2  0  0  0  0
  5  7  1  0  0  0  0
  1  5  1  0  0  0  0
  8  9  2  0  0  0  0
  8 10  1  0  0  0  0
  1  8  1  0  0  0  0
 11 12  2  0  0  0  0
 11 13  1  0  0  0  0
  1 11  1  0  0  0  0
 14 15  2  0  0  0  0
 14 16  1  0  0  0  0
  1 14  1  0  0  0  0
 17 18  2  0  0  0  0
 17 19  1  0  0  0  0
  1 17  1  0  0  0  0
M  END
> <NMREDATA_VERSION>
1.1

> <NMREDATA_LEVEL>
0

> <NMREDATA_SOLVENT>
H2O

> <NMREDATA_TEMPERATURE>
300

> <NMREDATA_FORMULA>
H12N6O12Rh

> <NMREDATA_SMILES>
ON(=O)[Rh](N(=O)O)(N(=O)O)(N(=O)O)(N(=O)O)N(=O)O

> <NMREDATA_ASSIGNMENT>
Rh1, 5628.00, 1

> <NMREDATA_1D_103Rh>
5628.00, L=Rh1

$$$$
RhMan0925_0207.mol
  ChemDraw12182508372D

M  V30 COUNTS 17 16 5 0 0
  0.024117  0.000000  0.000000 Rh   0  7  0  0  0  0  0
  0.738588 -0.412500  0.000000 O    0  0  0  0  0  0  0
  0.024117 -0.825000  0.000000 N    0  3  0  0  0  0  0
 -0.687873 -1.236068  0.000000 O    0  0  0  0  0  0  0
  0.736108 -1.236068  0.000000 O    0  5  0  0  0  0  0
 -0.690353  0.412500  0.000000 N    0  3  0  0  0  0  0
 -0.690353  1.234636  0.000000 O    0  0  0  0  0  0  0
 -1.402344  0.001432  0.000000 O    0  5  0  0  0  0  0
  0.821006  0.213526  0.000000 N    0  3  0  0  0  0  0
  1.402344 -0.367812  0.000000 O    0  0  0  0  0  0  0
  1.033790  1.007648  0.000000 O    0  5  0  0  0  0  0
  0.024117  0.825000  0.000000 N    0  3  0  0  0  0  0
  0.736108  1.236068  0.000000 O    0  0  0  0  0  0  0
 -0.687873  1.236068  0.000000 O    0  5  0  0  0  0  0
 -0.690353 -0.412500  0.000000 N    0  3  0  0  0  0  0
 -1.402344 -0.001432  0.000000 O    0  0  0  0  0  0  0
 -0.690353 -1.234635  0.000000 O    0  5  0  0  0  0  0
  3  4  2  0  0  0  0
  3  5  1  0  0  0  0
  1  3  1  0  0  0  0
  6  7  2  0  0  0  0
  6  8  1  0  0  0  0
  1  6  1  0  0  0  0
  9 10  2  0  0  0  0
  9 11  1  0  0  0  0
  1  9  1  0  0  0  0
 12 13  2  0  0  0  0
 12 14  1  0  0  0  0
  1 12  1  0  0  0  0
 15 16  2  0  0  0  0
 15 17  1  0  0  0  0
  1 15  1  0  0  0  0
  1  2  1  0  0  0  0
M  END
> <NMREDATA_VERSION>
1.1

> <NMREDATA_LEVEL>
0

> <NMREDATA_SOLVENT>
H2O

> <NMREDATA_TEMPERATURE>
300

> <NMREDATA_FORMULA>
H11N5O11Rh

> <NMREDATA_SMILES>
ON(=O)[Rh](N(=O)O)(N(=O)O)(N(=O)O)(N(=O)O)O

> <NMREDATA_ASSIGNMENT>
Rh1, 5752.00, 1

> <NMREDATA_1D_103Rh>
5752.00, L=Rh1

$$$$
RhMan0925_0209.mol
  ChemDraw12182508452D

M  V30 COUNTS 10 9 0 0 0
  0.357235 -0.604695  0.000000 Rh   0  7  0  0  0  0  0
 -0.357235 -0.192195  0.000000 N    0  3  0  0  0  0  0
  1.154124 -0.391169  0.000000 O    0  0  0  0  0  0  0
  0.357235  0.220305  0.000000 N    0  3  0  0  0  0  0
  1.071706 -1.017195  0.000000 O    0  0  0  0  0  0  0
 -0.357235 -1.017195  0.000000 O    0  0  0  0  0  0  0
 -0.570762  0.604695  0.000000 O    0  5  0  0  0  0  0
 -1.154124  0.021331  0.000000 O    0  0  0  0  0  0  0
  0.570761  1.017195  0.000000 O    0  5  0  0  0  0  0
  1.154124  0.433831  0.000000 O    0  0  0  0  0  0  0
  1  2  1  0  0  0  0
  1  3  1  0  0  0  0
  1  4  1  0  0  0  0
  1  5  1  0  0  0  0
  1  6  1  0  0  0  0
  2  7  1  0  0  0  0
  2  8  2  0  0  0  0
  4  9  1  0  0  0  0
  4 10  2  0  0  0  0
M  END
> <NMREDATA_VERSION>
1.1

> <NMREDATA_LEVEL>
0

> <NMREDATA_SOLVENT>
H2O

> <NMREDATA_TEMPERATURE>
300

> <NMREDATA_FORMULA>
H7N2O7Rh

> <NMREDATA_SMILES>
ON(=O)[Rh](N(=O)O)(O)(O)O

> <NMREDATA_ASSIGNMENT>
Rh1, 6467.00, 1

> <NMREDATA_1D_103Rh>
6467.00, L=Rh1

$$$$
RhMan0925_0223.mol
  ChemDraw12182509442D

M  V30 COUNTS 52 62 0 0 0
  0.706283 -0.763417  0.000000 Rh   0  0  0  0  0  0  0
  0.293783 -1.477888  0.000000 P    0  0  0  0  0  0  0
 -0.531217 -1.477888  0.000000 C    0  0  0  0  0  0  0
 -1.114579 -0.894525  0.000000 C    0  0  0  0  0  0  0
 -0.702079 -0.180055  0.000000 P    0  0  0  0  0  0  0
  0.644810  0.033472  0.000000 C    0  0  0  0  0  0  0
 -0.551183  1.265088  0.000000 C    0  0  0  0  0  0  0
 -2.791897  0.743513  0.000000 C    0  0  0  0  0  0  0
  0.080258 -2.274777  0.000000 C    0  0  0  0  0  0  0
  1.050034 -1.924763  0.000000 C    0  0  0  0  0  0  0
  1.037560 -2.749669  0.000000 C    0  0  0  0  0  0  0
  1.745713 -3.172924  0.000000 C    0  0  0  0  0  0  0
  2.466339 -2.749669  0.000000 C    0  0  0  0  0  0  0
  2.466339 -1.924763  0.000000 C    0  0  0  0  0  0  0
  1.745713 -1.501509  0.000000 C    0  0  0  0  0  0  0
 -0.716630 -2.488302  0.000000 C    0  0  0  0  0  0  0
 -0.930157 -3.285191  0.000000 C    0  0  0  0  0  0  0
 -0.346793 -3.868554  0.000000 C    0  0  0  0  0  0  0
  0.450095 -3.655029  0.000000 C    0  0  0  0  0  0  0
  0.663621 -2.858140  0.000000 C    0  0  0  0  0  0  0
 -1.911469 -1.108050  0.000000 C    0  0  0  0  0  0  0
 -2.124994 -1.904940  0.000000 C    0  0  0  0  0  0  0
 -1.541630 -2.488302  0.000000 C    0  0  0  0  0  0  0
 -0.744742 -2.274777  0.000000 C    0  0  0  0  0  0  0
  0.202264  1.601158  0.000000 C    0  0  0  0  0  0  0
  0.287942  2.421697  0.000000 C    0  0  0  0  0  0  0
 -0.379826  2.906166  0.000000 C    0  0  0  0  0  0  0
 -1.133273  2.570095  0.000000 C    0  0  0  0  0  0  0
 -1.218951  1.749556  0.000000 C    0  0  0  0  0  0  0
 -2.880390  1.563753  0.000000 C    0  0  0  0  0  0  0
 -3.634985  1.897235  0.000000 C    0  0  0  0  0  0  0
 -4.301088  1.410479  0.000000 C    0  0  0  0  0  0  0
 -4.212595  0.590238  0.000000 C    0  0  0  0  0  0  0
 -3.458000  0.256755  0.000000 C    0  0  0  0  0  0  0
  1.156017  0.680999  0.000000 S    0  0  0  0  0  0  0
  1.369543  1.477888  0.000000 C    0  0  0  0  0  0  0
  1.981017  0.680999  0.000000 C    0  0  0  0  0  0  0
  1.772519  0.132774  0.000000 O    0  0  0  0  0  0  0
  2.166432  1.691413  0.000000 C    0  0  0  0  0  0  0
  2.379958  2.488302  0.000000 C    0  0  0  0  0  0  0
  1.796594  3.071665  0.000000 C    0  0  0  0  0  0  0
  0.999706  2.858139  0.000000 C    0  0  0  0  0  0  0
  0.786180  2.061251  0.000000 C    0  0  0  0  0  0  0
  2.010120  3.868554  0.000000 C    0  0  0  0  0  0  0
  2.493785 -0.454043  0.000000 C    0  0  0  0  0  0  0
  3.077148  0.129321  0.000000 C    0  0  0  0  0  0  0
  3.290673 -0.667568  0.000000 C    0  0  0  0  0  0  0
  3.504199 -1.464456  0.000000 C    0  0  0  0  0  0  0
  3.091699 -2.178928  0.000000 C    0  0  0  0  0  0  0
  3.888588 -1.965402  0.000000 C    0  0  0  0  0  0  0
  4.301088 -1.250931  0.000000 C    0  0  0  0  0  0  0
  4.087562 -0.454043  0.000000 C    0  0  0  0  0  0  0
  1  2  1  0  0  0  0
  2  3  1  0  0  0  0
  3  4  2  0  0  0  0
  4  5  1  0  0  0  0
  5  6  2  0  0  0  0
  6  1  1  0  0  0  0
  5  7  1  0  0  0  0
  5  8  1  0  0  0  0
  2  9  1  0  0  0  0
  2 10  1  0  0  0  0
 10 11  2  0  0  0  0
 11 12  1  0  0  0  0
 12 13  2  0  0  0  0
 13 14  1  0  0  0  0
 14 15  2  0  0  0  0
 15 10  1  0  0  0  0
  9 16  2  0  0  0  0
 16 17  1  0  0  0  0
 17 18  2  0  0  0  0
 18 19  1  0  0  0  0
 19 20  2  0  0  0  0
 20  9  1  0  0  0  0
  4 21  1  0  0  0  0
 21 22  2  0  0  0  0
 22 23  1  0  0  0  0
 23 24  2  0  0  0  0
 24  3  1  0  0  0  0
  7 25  2  0  0  0  0
 25 26  1  0  0  0  0
 26 27  2  0  0  0  0
 27 28  1  0  0  0  0
 28 29  2  0  0  0  0
 29  7  1  0  0  0  0
  8 30  2  0  0  0  0
 30 31  1  0  0  0  0
 31 32  2  0  0  0  0
 32 33  1  0  0  0  0
 33 34  2  0  0  0  0
 34  8  1  0  0  0  0
  6 35  1  0  0  0  0
 35 36  1  0  0  0  0
 35 37  1  0  0  0  0
 35 38  2  0  0  0  0
 36 39  2  0  0  0  0
 39 40  1  0  0  0  0
 40 41  2  0  0  0  0
 41 42  1  0  0  0  0
 42 43  2  0  0  0  0
 43 36  1  0  0  0  0
 41 44  1  0  0  0  0
 45 46  1  0  0  0  0
 45 47  1  0  0  0  0
 47 48  1  0  0  0  0
 48 49  1  0  0  0  0
 49 50  1  0  0  0  0
 50 51  1  0  0  0  0
 51 52  1  0  0  0  0
 52 46  1  0  0  0  0
  1 45  1  0  0  0  0
  1 46  1  0  0  0  0
  1 49  1  0  0  0  0
  1 50  1  0  0  0  0
M  END
> <NMREDATA_VERSION>
1.1

> <NMREDATA_LEVEL>
0

> <NMREDATA_SOLVENT>
CDCl3

> <NMREDATA_TEMPERATURE>
298

> <NMREDATA_FORMULA>
C47H48OP2RhS

> <NMREDATA_SMILES>
Cc1ccc(cc1)S(=O)(C1=P(c2ccccc2)(c2ccccc2)c2ccccc2P([Rh]2341C1C4CCC2C3CC1)(c1ccccc1)c1ccccc1)C

> <NMREDATA_ASSIGNMENT>
Rh1, 259.00, 1

> <NMREDATA_1D_103Rh>
259.00, L=Rh1

$$$$
RhMan0925_0224.mol
  ChemDraw12182509442D

M  V30 COUNTS 53 62 0 0 0
 -0.263503 -0.763417  0.000000 Rh   0  0  0  0  0  0  0
 -0.676003 -1.477888  0.000000 P    0  0  0  0  0  0  0
 -1.501003 -1.477888  0.000000 C    0  0  0  0  0  0  0
 -2.084366 -0.894525  0.000000 C    0  0  0  0  0  0  0
 -1.671866 -0.180055  0.000000 P    0  3  0  0  0  0  0
 -0.324977  0.033472  0.000000 C    0  0  0  0  0  0  0
 -1.520969  1.265088  0.000000 C    0  0  0  0  0  0  0
 -3.761684  0.743513  0.000000 C    0  0  0  0  0  0  0
 -0.889529 -2.274777  0.000000 C    0  0  0  0  0  0  0
  0.080247 -1.924763  0.000000 C    0  0  0  0  0  0  0
  0.067774 -2.749669  0.000000 C    0  0  0  0  0  0  0
  0.775926 -3.172924  0.000000 C    0  0  0  0  0  0  0
  1.496553 -2.749669  0.000000 C    0  0  0  0  0  0  0
  1.496553 -1.924763  0.000000 C    0  0  0  0  0  0  0
  0.775926 -1.501509  0.000000 C    0  0  0  0  0  0  0
 -1.686417 -2.488302  0.000000 C    0  0  0  0  0  0  0
 -1.899943 -3.285191  0.000000 C    0  0  0  0  0  0  0
 -1.316580 -3.868554  0.000000 C    0  0  0  0  0  0  0
 -0.519692 -3.655029  0.000000 C    0  0  0  0  0  0  0
 -0.306165 -2.858140  0.000000 C    0  0  0  0  0  0  0
 -2.881255 -1.108050  0.000000 C    0  0  0  0  0  0  0
 -3.094781 -1.904940  0.000000 C    0  0  0  0  0  0  0
 -2.511417 -2.488302  0.000000 C    0  0  0  0  0  0  0
 -1.714529 -2.274777  0.000000 C    0  0  0  0  0  0  0
 -0.767523  1.601158  0.000000 C    0  0  0  0  0  0  0
 -0.681845  2.421697  0.000000 C    0  0  0  0  0  0  0
 -1.349612  2.906166  0.000000 C    0  0  0  0  0  0  0
 -2.103060  2.570095  0.000000 C    0  0  0  0  0  0  0
 -2.188738  1.749556  0.000000 C    0  0  0  0  0  0  0
 -3.850177  1.563753  0.000000 C    0  0  0  0  0  0  0
 -4.604772  1.897235  0.000000 C    0  0  0  0  0  0  0
 -5.270874  1.410479  0.000000 C    0  0  0  0  0  0  0
 -5.182382  0.590238  0.000000 C    0  0  0  0  0  0  0
 -4.427786  0.256755  0.000000 C    0  0  0  0  0  0  0
  0.186231  0.680999  0.000000 S    0  0  0  0  0  0  0
  0.399756  1.477888  0.000000 C    0  0  0  0  0  0  0
  1.011231  0.680999  0.000000 C    0  0  0  0  0  0  0
  0.802733  0.132774  0.000000 O    0  0  0  0  0  0  0
  1.196645  1.691413  0.000000 C    0  0  0  0  0  0  0
  1.410171  2.488302  0.000000 C    0  0  0  0  0  0  0
  0.826807  3.071665  0.000000 C    0  0  0  0  0  0  0
  0.029919  2.858139  0.000000 C    0  0  0  0  0  0  0
 -0.183606  2.061251  0.000000 C    0  0  0  0  0  0  0
  1.040334  3.868554  0.000000 C    0  0  0  0  0  0  0
  1.523998 -0.454043  0.000000 C    0  0  0  0  0  0  0
  2.107361  0.129321  0.000000 C    0  0  0  0  0  0  0
  2.320887 -0.667568  0.000000 C    0  0  0  0  0  0  0
  2.534412 -1.464456  0.000000 C    0  0  0  0  0  0  0
  2.121912 -2.178928  0.000000 C    0  0  0  0  0  0  0
  2.918801 -1.965402  0.000000 C    0  0  0  0  0  0  0
  3.331301 -1.250931  0.000000 C    0  0  0  0  0  0  0
  3.117776 -0.454043  0.000000 C    0  0  0  0  0  0  0
  5.270874  1.539709  0.000000 Cl   0  5  0  0  0  0  0
  1  2  1  0  0  0  0
  2  3  1  0  0  0  0
  3  4  2  0  0  0  0
  4  5  1  0  0  0  0
  5  6  1  0  0  0  0
  6  1  1  0  0  0  0
  5  7  1  0  0  0  0
  5  8  1  0  0  0  0
  2  9  1  0  0  0  0
  2 10  1  0  0  0  0
 10 11  2  0  0  0  0
 11 12  1  0  0  0  0
 12 13  2  0  0  0  0
 13 14  1  0  0  0  0
 14 15  2  0  0  0  0
 15 10  1  0  0  0  0
  9 16  2  0  0  0  0
 16 17  1  0  0  0  0
 17 18  2  0  0  0  0
 18 19  1  0  0  0  0
 19 20  2  0  0  0  0
 20  9  1  0  0  0  0
  4 21  1  0  0  0  0
 21 22  2  0  0  0  0
 22 23  1  0  0  0  0
 23 24  2  0  0  0  0
 24  3  1  0  0  0  0
  7 25  2  0  0  0  0
 25 26  1  0  0  0  0
 26 27  2  0  0  0  0
 27 28  1  0  0  0  0
 28 29  2  0  0  0  0
 29  7  1  0  0  0  0
  8 30  2  0  0  0  0
 30 31  1  0  0  0  0
 31 32  2  0  0  0  0
 32 33  1  0  0  0  0
 33 34  2  0  0  0  0
 34  8  1  0  0  0  0
  6 35  1  0  0  0  0
 35 36  1  0  0  0  0
 35 37  1  0  0  0  0
 35 38  2  0  0  0  0
 36 39  2  0  0  0  0
 39 40  1  0  0  0  0
 40 41  2  0  0  0  0
 41 42  1  0  0  0  0
 42 43  2  0  0  0  0
 43 36  1  0  0  0  0
 41 44  1  0  0  0  0
 45 46  1  0  0  0  0
 45 47  1  0  0  0  0
 47 48  1  0  0  0  0
 48 49  1  0  0  0  0
 49 50  1  0  0  0  0
 50 51  1  0  0  0  0
 51 52  1  0  0  0  0
 52 46  1  0  0  0  0
  1 45  1  0  0  0  0
  1 46  1  0  0  0  0
  1 49  1  0  0  0  0
  1 50  1  0  0  0  0
M  END
> <NMREDATA_VERSION>
1.1

> <NMREDATA_LEVEL>
0

> <NMREDATA_SOLVENT>
CDCl3

> <NMREDATA_TEMPERATURE>
298

> <NMREDATA_FORMULA>
C47H51ClOP2RhS

> <NMREDATA_SMILES>
Cc1ccc(cc1)S(=O)(C1P(c2ccccc2)(c2ccccc2)c2ccccc2P([Rh]2341C1C4CCC2C3CC1)(c1ccccc1)c1ccccc1)C.Cl

> <NMREDATA_ASSIGNMENT>
Rh1, 170.00, 1

> <NMREDATA_1D_103Rh>
170.00, L=Rh1

$$$$
RhMan0925_0225.mol
  ChemDraw12182509522D

M  V30 COUNTS 33 52 0 0 0
 -1.331670 -1.172776  0.000000 Rh   0  0  0  0  0  0  0
 -1.881671 -2.066527  0.000000 C    0  0  0  0  0  0  0
 -2.596142 -2.479027  0.000000 C    0  0  0  0  0  0  0
 -2.382616 -3.275915  0.000000 C    0  0  0  0  0  0  0
 -1.557616 -3.275915  0.000000 C    0  0  0  0  0  0  0
 -1.366046 -2.650902  0.000000 C    0  0  0  0  0  0  0
 -0.651575 -2.238402  0.000000 C    0  0  0  0  0  0  0
 -0.865100 -3.035290  0.000000 C    0  0  0  0  0  0  0
 -1.690100 -3.035290  0.000000 C    0  0  0  0  0  0  0
 -2.087920  0.305350  0.000000 C    0  0  0  0  0  0  0
 -1.675420 -0.409121  0.000000 C    0  0  0  0  0  0  0
 -0.868449 -0.237594  0.000000 C    0  0  0  0  0  0  0
 -0.782214  0.582886  0.000000 C    0  0  0  0  0  0  0
 -1.535888  0.918444  0.000000 C    0  0  0  0  0  0  0
 -0.201010 -0.722517  0.000000 C    0  0  0  0  0  0  0
  0.552665 -0.386959  0.000000 C    0  0  0  0  0  0  0
  0.638901  0.433521  0.000000 C    0  0  0  0  0  0  0
 -0.028538  0.918444  0.000000 C    0  0  0  0  0  0  0
  1.306339 -0.722517  0.000000 C    0  0  0  0  0  0  0
  1.858373 -0.109422  0.000000 C    0  0  0  0  0  0  0
  1.445873  0.605048  0.000000 C    0  0  0  0  0  0  0
 -0.287246 -1.542998  0.000000 C    0  0  0  0  0  0  0
  0.057698  1.738925  0.000000 C    0  0  0  0  0  0  0
 -2.908402  0.391586  0.000000 C    0  0  0  0  0  0  0
 -3.393324 -0.275854  0.000000 C    0  0  0  0  0  0  0
  2.678853 -0.195659  0.000000 C    0  0  0  0  0  0  0
  3.393324  0.216841  0.000000 C    0  0  0  0  0  0  0
  1.246456  1.508475  0.000000 Fe   0  0  0  0  0  0  0
  0.850573  3.020976  0.000000 C    0  0  0  0  0  0  0
  0.850573  2.195976  0.000000 C    0  0  0  0  0  0  0
  1.635195  1.941037  0.000000 C    0  0  0  0  0  0  0
  2.120117  2.608476  0.000000 C    0  0  0  0  0  0  0
  1.635195  3.275915  0.000000 C    0  0  0  0  0  0  0
  2  3  1  0  0  0  0
  3  4  1  0  0  0  0
  4  5  1  0  0  0  0
  5  6  1  0  0  0  0
  6  7  1  0  0  0  0
  7  8  1  0  0  0  0
  8  9  1  0  0  0  0
  9  2  1  0  0  0  0
  2  1  1  0  0  0  0
  3  1  1  0  0  0  0
  7  1  1  0  0  0  0
  6  1  1  0  0  0  0
 10 11  1  0  0  0  0
 11 12  1  0  0  0  0
 12 13  2  0  0  0  0
 13 14  1  0  0  0  0
 14 10  1  0  0  0  0
 12 15  1  0  0  0  0
 15 16  2  0  0  0  0
 16 17  1  0  0  0  0
 17 18  2  0  0  0  0
 18 13  1  0  0  0  0
 16 19  1  0  0  0  0
 19 20  1  0  0  0  0
 20 21  1  0  0  0  0
 21 17  1  0  0  0  0
 15 22  1  0  0  0  0
 18 23  1  0  0  0  0
 10 24  1  0  0  0  0
 24 25  1  0  0  0  0
 20 26  1  0  0  0  0
 26 27  1  0  0  0  0
  1 11  1  0  0  0  0
  1 12  1  0  0  0  0
  1 10  1  0  0  0  0
  1 14  1  0  0  0  0
  1 13  1  0  0  0  0
 29 30  1  0  0  0  0
 30 31  1  0  0  0  0
 31 32  1  0  0  0  0
 32 33  1  0  0  0  0
 33 29  1  0  0  0  0
 28 30  1  0  0  0  0
 28 31  1  0  0  0  0
 28 29  1  0  0  0  0
 28 33  1  0  0  0  0
 28 32  1  0  0  0  0
 28 17  1  0  0  0  0
 28 21  1  0  0  0  0
 28 20  1  0  0  0  0
 28 19  1  0  0  0  0
 28 16  1  0  0  0  0
M  END
> <NMREDATA_VERSION>
1.1

> <NMREDATA_LEVEL>
0

> <NMREDATA_SOLVENT>
C6D6

> <NMREDATA_TEMPERATURE>
298

> <NMREDATA_FORMULA>
C31H37FeRh

> <NMREDATA_SMILES>
CCC12C3[Fe]4567892(C1[C]15=C(C)[C]25=[C]%10(C(=[C]341)C)C1[Rh]34%11%122%10(C5C13CC)C1C%12CCC4C%11CC1)C1C8C7C6C91

> <NMREDATA_ASSIGNMENT>
Rh1, -275.00, 1

> <NMREDATA_1D_103Rh>
-275.00, L=Rh1

$$$$
RhMan0925_0226.mol
  ChemDraw12182509522D

M  V30 COUNTS 33 52 0 0 0
 -1.331670 -1.172776  0.000000 Rh   0  0  0  0  0  0  0
 -1.881671 -2.066527  0.000000 C    0  0  0  0  0  0  0
 -2.596142 -2.479027  0.000000 C    0  0  0  0  0  0  0
 -2.382616 -3.275915  0.000000 C    0  0  0  0  0  0  0
 -1.557616 -3.275915  0.000000 C    0  0  0  0  0  0  0
 -1.366046 -2.650902  0.000000 C    0  0  0  0  0  0  0
 -0.651575 -2.238402  0.000000 C    0  0  0  0  0  0  0
 -0.865100 -3.035290  0.000000 C    0  0  0  0  0  0  0
 -1.690100 -3.035290  0.000000 C    0  0  0  0  0  0  0
 -2.087920  0.305350  0.000000 C    0  0  0  0  0  0  0
 -1.675420 -0.409121  0.000000 C    0  0  0  0  0  0  0
 -0.868449 -0.237594  0.000000 C    0  0  0  0  0  0  0
 -0.782214  0.582886  0.000000 C    0  0  0  0  0  0  0
 -1.535888  0.918444  0.000000 C    0  0  0  0  0  0  0
 -0.201010 -0.722517  0.000000 C    0  0  0  0  0  0  0
  0.552665 -0.386959  0.000000 C    0  0  0  0  0  0  0
  0.638901  0.433521  0.000000 C    0  0  0  0  0  0  0
 -0.028538  0.918444  0.000000 C    0  0  0  0  0  0  0
  1.306339 -0.722517  0.000000 C    0  0  0  0  0  0  0
  1.858373 -0.109422  0.000000 C    0  0  0  0  0  0  0
  1.445873  0.605048  0.000000 C    0  0  0  0  0  0  0
 -0.287246 -1.542998  0.000000 C    0  0  0  0  0  0  0
  0.057698  1.738925  0.000000 C    0  0  0  0  0  0  0
 -2.908402  0.391586  0.000000 C    0  0  0  0  0  0  0
 -3.393324 -0.275854  0.000000 C    0  0  0  0  0  0  0
  2.678853 -0.195659  0.000000 C    0  0  0  0  0  0  0
  3.393324  0.216841  0.000000 C    0  0  0  0  0  0  0
  1.246456  1.508475  0.000000 Ru   0  0  0  0  0  0  0
  0.850573  3.020976  0.000000 C    0  0  0  0  0  0  0
  0.850573  2.195976  0.000000 C    0  0  0  0  0  0  0
  1.635195  1.941037  0.000000 C    0  0  0  0  0  0  0
  2.120117  2.608476  0.000000 C    0  0  0  0  0  0  0
  1.635195  3.275915  0.000000 C    0  0  0  0  0  0  0
  2  3  1  0  0  0  0
  3  4  1  0  0  0  0
  4  5  1  0  0  0  0
  5  6  1  0  0  0  0
  6  7  1  0  0  0  0
  7  8  1  0  0  0  0
  8  9  1  0  0  0  0
  9  2  1  0  0  0  0
  2  1  1  0  0  0  0
  3  1  1  0  0  0  0
  7  1  1  0  0  0  0
  6  1  1  0  0  0  0
 10 11  1  0  0  0  0
 11 12  1  0  0  0  0
 12 13  2  0  0  0  0
 13 14  1  0  0  0  0
 14 10  1  0  0  0  0
 12 15  1  0  0  0  0
 15 16  2  0  0  0  0
 16 17  1  0  0  0  0
 17 18  2  0  0  0  0
 18 13  1  0  0  0  0
 16 19  1  0  0  0  0
 19 20  1  0  0  0  0
 20 21  1  0  0  0  0
 21 17  1  0  0  0  0
 15 22  1  0  0  0  0
 18 23  1  0  0  0  0
 10 24  1  0  0  0  0
 24 25  1  0  0  0  0
 20 26  1  0  0  0  0
 26 27  1  0  0  0  0
  1 11  1  0  0  0  0
  1 12  1  0  0  0  0
  1 10  1  0  0  0  0
  1 14  1  0  0  0  0
  1 13  1  0  0  0  0
 29 30  1  0  0  0  0
 30 31  1  0  0  0  0
 31 32  1  0  0  0  0
 32 33  1  0  0  0  0
 33 29  1  0  0  0  0
 28 30  1  0  0  0  0
 28 31  1  0  0  0  0
 28 29  1  0  0  0  0
 28 33  1  0  0  0  0
 28 32  1  0  0  0  0
 28 17  1  0  0  0  0
 28 21  1  0  0  0  0
 28 20  1  0  0  0  0
 28 19  1  0  0  0  0
 28 16  1  0  0  0  0
M  END
> <NMREDATA_VERSION>
1.1

> <NMREDATA_LEVEL>
0

> <NMREDATA_SOLVENT>
C6D6

> <NMREDATA_TEMPERATURE>
298

> <NMREDATA_FORMULA>
C31H37RhRu

> <NMREDATA_SMILES>
CCC12C3[Ru]4567892(C1[C]15=C(C)[C]25=[C]%10(C(=[C]341)C)C1[Rh]34%11%122%10(C5C13CC)C1C%12CCC4C%11CC1)C1C8C7C6C91

> <NMREDATA_ASSIGNMENT>
Rh1, -281.00, 1

> <NMREDATA_1D_103Rh>
-281.00, L=Rh1

$$$$
RhMan0925_0227.mol
  ChemDraw12182509532D

M  V30 COUNTS 33 52 0 0 0
 -1.331670  0.102051  0.000000 Rh   0  0  0  0  0  0  0
 -1.881671 -0.791699  0.000000 C    0  0  0  0  0  0  0
 -2.596142 -1.204199  0.000000 C    0  0  0  0  0  0  0
 -2.382616 -2.001088  0.000000 C    0  0  0  0  0  0  0
 -1.557616 -2.001088  0.000000 C    0  0  0  0  0  0  0
 -1.366046 -1.376075  0.000000 C    0  0  0  0  0  0  0
 -0.651575 -0.963575  0.000000 C    0  0  0  0  0  0  0
 -0.865100 -1.760463  0.000000 C    0  0  0  0  0  0  0
 -1.690100 -1.760463  0.000000 C    0  0  0  0  0  0  0
 -2.087920  1.580177  0.000000 C    0  0  0  0  0  0  0
 -1.675420  0.865706  0.000000 C    0  0  0  0  0  0  0
 -0.868449  1.037233  0.000000 C    0  0  0  0  0  0  0
 -0.782214  1.857713  0.000000 C    0  0  0  0  0  0  0
 -1.535888  2.193271  0.000000 C    0  0  0  0  0  0  0
 -0.201010  0.552310  0.000000 C    0  0  0  0  0  0  0
  0.552665  0.887868  0.000000 C    0  0  0  0  0  0  0
  0.638901  1.708348  0.000000 C    0  0  0  0  0  0  0
 -0.028538  2.193271  0.000000 C    0  0  0  0  0  0  0
  1.306339  0.552310  0.000000 C    0  0  0  0  0  0  0
  1.858373  1.165405  0.000000 C    0  0  0  0  0  0  0
  1.445873  1.879875  0.000000 C    0  0  0  0  0  0  0
 -0.287246 -0.268171  0.000000 C    0  0  0  0  0  0  0
  0.057698  3.013752  0.000000 C    0  0  0  0  0  0  0
 -2.908402  1.666413  0.000000 C    0  0  0  0  0  0  0
 -3.393324  0.998974  0.000000 C    0  0  0  0  0  0  0
  2.678853  1.079168  0.000000 C    0  0  0  0  0  0  0
  3.393324  1.491668  0.000000 C    0  0  0  0  0  0  0
  1.246456 -1.204199  0.000000 Ru   0  0  0  0  0  0  0
  1.974788 -2.587641  0.000000 C    0  0  0  0  0  0  0
  1.787834 -1.784104  0.000000 C    0  0  0  0  0  0  0
  0.965852 -1.713600  0.000000 C    0  0  0  0  0  0  0
  0.644793 -2.473565  0.000000 C    0  0  0  0  0  0  0
  1.268350 -3.013752  0.000000 C    0  0  0  0  0  0  0
  2  3  1  0  0  0  0
  3  4  1  0  0  0  0
  4  5  1  0  0  0  0
  5  6  1  0  0  0  0
  6  7  1  0  0  0  0
  7  8  1  0  0  0  0
  8  9  1  0  0  0  0
  9  2  1  0  0  0  0
  2  1  1  0  0  0  0
  3  1  1  0  0  0  0
  7  1  1  0  0  0  0
  6  1  1  0  0  0  0
 10 11  1  0  0  0  0
 11 12  1  0  0  0  0
 12 13  2  0  0  0  0
 13 14  1  0  0  0  0
 14 10  1  0  0  0  0
 12 15  1  0  0  0  0
 15 16  2  0  0  0  0
 16 17  1  0  0  0  0
 17 18  2  0  0  0  0
 18 13  1  0  0  0  0
 16 19  1  0  0  0  0
 19 20  1  0  0  0  0
 20 21  1  0  0  0  0
 21 17  1  0  0  0  0
 15 22  1  0  0  0  0
 18 23  1  0  0  0  0
 10 24  1  0  0  0  0
 24 25  1  0  0  0  0
 20 26  1  0  0  0  0
 26 27  1  0  0  0  0
  1 11  1  0  0  0  0
  1 12  1  0  0  0  0
  1 10  1  0  0  0  0
  1 14  1  0  0  0  0
  1 13  1  0  0  0  0
 29 30  1  0  0  0  0
 30 31  1  0  0  0  0
 31 32  1  0  0  0  0
 32 33  1  0  0  0  0
 33 29  1  0  0  0  0
 28 30  1  0  0  0  0
 28 31  1  0  0  0  0
 28 29  1  0  0  0  0
 28 33  1  0  0  0  0
 28 32  1  0  0  0  0
 28 17  1  0  0  0  0
 28 21  1  0  0  0  0
 28 20  1  0  0  0  0
 28 19  1  0  0  0  0
 28 16  1  0  0  0  0
M  END
> <NMREDATA_VERSION>
1.1

> <NMREDATA_LEVEL>
0

> <NMREDATA_SOLVENT>
C6D6

> <NMREDATA_TEMPERATURE>
298

> <NMREDATA_FORMULA>
C31H37RhRu

> <NMREDATA_SMILES>
CCC12C3[Ru]4567892(C1[C]15=C(C)[C]25=[C]%10(C(=[C]341)C)C1[Rh]34%11%122%10(C5C13CC)C1C%12CCC4C%11CC1)C1C8C7C6C91

> <NMREDATA_ASSIGNMENT>
Rh1, -245.00, 1

> <NMREDATA_1D_103Rh>
-245.00, L=Rh1

$$$$
RhMan0925_0228.mol
  ChemDraw12182509542D

M  V30 COUNTS 38 56 0 0 0
 -2.935785 -1.172776  0.000000 Rh   0  0  0  0  0  0  0
 -3.485785 -2.066527  0.000000 C    0  0  0  0  0  0  0
 -4.200257 -2.479027  0.000000 C    0  0  0  0  0  0  0
 -3.986730 -3.275915  0.000000 C    0  0  0  0  0  0  0
 -3.161730 -3.275915  0.000000 C    0  0  0  0  0  0  0
 -2.970160 -2.650902  0.000000 C    0  0  0  0  0  0  0
 -2.255689 -2.238402  0.000000 C    0  0  0  0  0  0  0
 -2.469215 -3.035290  0.000000 C    0  0  0  0  0  0  0
 -3.294215 -3.035290  0.000000 C    0  0  0  0  0  0  0
 -3.692035  0.305350  0.000000 C    0  0  0  0  0  0  0
 -3.279535 -0.409121  0.000000 C    0  0  0  0  0  0  0
 -2.472564 -0.237594  0.000000 C    0  0  0  0  0  0  0
 -2.386328  0.582886  0.000000 C    0  0  0  0  0  0  0
 -3.140003  0.918444  0.000000 C    0  0  0  0  0  0  0
 -1.805124 -0.722517  0.000000 C    0  0  0  0  0  0  0
 -1.051450 -0.386959  0.000000 C    0  0  0  0  0  0  0
 -0.965213  0.433521  0.000000 C    0  0  0  0  0  0  0
 -1.632652  0.918444  0.000000 C    0  0  0  0  0  0  0
 -0.297775 -0.722517  0.000000 C    0  0  0  0  0  0  0
  0.254258 -0.109422  0.000000 C    0  0  0  0  0  0  0
 -0.158242  0.605048  0.000000 C    0  0  0  0  0  0  0
 -1.891360 -1.542998  0.000000 C    0  0  0  0  0  0  0
 -1.546417  1.738925  0.000000 C    0  0  0  0  0  0  0
 -4.512516  0.391586  0.000000 C    0  0  0  0  0  0  0
 -4.997439 -0.275854  0.000000 C    0  0  0  0  0  0  0
  1.074738 -0.195659  0.000000 C    0  0  0  0  0  0  0
  1.789210  0.216841  0.000000 C    0  0  0  0  0  0  0
 -0.357659  1.508475  0.000000 Co   0  0  0  0  0  0  0
 -0.753541  3.020976  0.000000 C    0  0  0  0  0  0  0
 -0.753541  2.195976  0.000000 C    0  0  0  0  0  0  0
  0.031080  1.941037  0.000000 C    0  0  0  0  0  0  0
  0.516003  2.608476  0.000000 C    0  0  0  0  0  0  0
  0.031080  3.275915  0.000000 C    0  0  0  0  0  0  0
  4.282968  0.614725  0.000000 B    0  5  0  0  0  0  0
  4.282968 -0.210275  0.000000 F    0  0  0  0  0  0  0
  3.568497  1.027225  0.000000 F    0  0  0  0  0  0  0
  4.997439  1.027225  0.000000 F    0  0  0  0  0  0  0
  4.282968  1.439725  0.000000 F    0  0  0  0  0  0  0
  2  3  1  0  0  0  0
  3  4  1  0  0  0  0
  4  5  1  0  0  0  0
  5  6  1  0  0  0  0
  6  7  1  0  0  0  0
  7  8  1  0  0  0  0
  8  9  1  0  0  0  0
  9  2  1  0  0  0  0
  2  1  1  0  0  0  0
  3  1  1  0  0  0  0
  7  1  1  0  0  0  0
  6  1  1  0  0  0  0
 10 11  1  0  0  0  0
 11 12  1  0  0  0  0
 12 13  2  0  0  0  0
 13 14  1  0  0  0  0
 14 10  1  0  0  0  0
 12 15  1  0  0  0  0
 15 16  2  0  0  0  0
 16 17  1  0  0  0  0
 17 18  2  0  0  0  0
 18 13  1  0  0  0  0
 16 19  1  0  0  0  0
 19 20  1  0  0  0  0
 20 21  1  0  0  0  0
 21 17  1  0  0  0  0
 15 22  1  0  0  0  0
 18 23  1  0  0  0  0
 10 24  1  0  0  0  0
 24 25  1  0  0  0  0
 20 26  1  0  0  0  0
 26 27  1  0  0  0  0
  1 11  1  0  0  0  0
  1 12  1  0  0  0  0
  1 10  1  0  0  0  0
  1 14  1  0  0  0  0
  1 13  1  0  0  0  0
 29 30  1  0  0  0  0
 30 31  1  0  0  0  0
 31 32  1  0  0  0  0
 32 33  1  0  0  0  0
 33 29  1  0  0  0  0
 28 30  1  0  0  0  0
 28 31  1  0  0  0  0
 28 29  1  0  0  0  0
 28 33  1  0  0  0  0
 28 32  1  0  0  0  0
 28 17  1  0  0  0  0
 28 21  1  0  0  0  0
 28 20  1  0  0  0  0
 28 19  1  0  0  0  0
 28 16  1  0  0  0  0
 34 35  1  0  0  0  0
 34 36  1  0  0  0  0
 34 37  1  0  0  0  0
 34 38  1  0  0  0  0
M  END
> <NMREDATA_VERSION>
1.1

> <NMREDATA_LEVEL>
0

> <NMREDATA_SOLVENT>
C6D6

> <NMREDATA_TEMPERATURE>
298

> <NMREDATA_FORMULA>
C31H37BCoF4Rh

> <NMREDATA_SMILES>
F[B](F)(F)F.CCC12C3[Co]4567892(C1[C]15=C(C)[C]25=[C]%10(C(=[C]341)C)C1[Rh]34%11%122%10(C5C13CC)C1C%12CCC4C%11CC1)C1C8C7C6C91

> <NMREDATA_ASSIGNMENT>
Rh1, -271.00, 1

> <NMREDATA_1D_103Rh>
-271.00, L=Rh1

$$$$
RhMan0925_0229.mol
  ChemDraw12182510002D

M  V30 COUNTS 39 42 0 0 0
 -3.030550  1.060162  0.000000 Rh   0  0  0  0  0  0  0
 -2.447188  0.476800  0.000000 C    0  0  0  0  0  0  0
 -2.660713 -0.320089  0.000000 P    0  3  0  0  0  0  0
 -1.835713 -0.320089  0.000000 C    0  0  0  0  0  0  0
 -2.077350 -0.903452  0.000000 C    0  0  0  0  0  0  0
 -3.244076 -0.903452  0.000000 C    0  0  0  0  0  0  0
 -4.069076 -0.903452  0.000000 C    0  0  0  0  0  0  0
 -4.481576 -0.188981  0.000000 N    0  0  0  0  0  0  0
 -4.695102  0.607907  0.000000 C    0  0  0  0  0  0  0
 -5.518971  0.651085  0.000000 N    0  0  0  0  0  0  0
 -5.814625 -0.119119  0.000000 C    0  0  0  0  0  0  0
 -5.173480 -0.638309  0.000000 C    0  0  0  0  0  0  0
 -5.968299  1.342988  0.000000 C    0  0  0  0  0  0  0
 -1.423213 -1.034560  0.000000 C    0  0  0  0  0  0  0
 -0.598213 -1.034560  0.000000 C    0  0  0  0  0  0  0
 -0.185713 -0.320089  0.000000 C    0  0  0  0  0  0  0
 -0.598213  0.394382  0.000000 C    0  0  0  0  0  0  0
 -1.423213  0.394382  0.000000 C    0  0  0  0  0  0  0
 -2.290876 -1.700340  0.000000 C    0  0  0  0  0  0  0
 -1.707512 -2.283704  0.000000 C    0  0  0  0  0  0  0
 -0.910624 -2.070179  0.000000 C    0  0  0  0  0  0  0
 -0.697099 -1.273289  0.000000 C    0  0  0  0  0  0  0
 -1.280461 -0.689927  0.000000 C    0  0  0  0  0  0  0
 -4.481576 -1.617923  0.000000 C    0  0  0  0  0  0  0
 -4.069076 -2.332394  0.000000 C    0  0  0  0  0  0  0
 -3.244076 -2.332394  0.000000 C    0  0  0  0  0  0  0
 -2.831576 -1.617923  0.000000 C    0  0  0  0  0  0  0
 -2.618050  1.774634  0.000000 C    0  0  0  0  0  0  0
 -3.613913  1.643526  0.000000 C    0  0  0  0  0  0  0
 -2.010161  2.332394  0.000000 O    0  0  0  0  0  0  0
 -4.197277  2.226889  0.000000 O    0  0  0  0  0  0  0
  5.253828 -0.658588  0.000000 S    0  0  0  0  0  0  0
  5.968299 -0.246088  0.000000 O    0  0  0  0  0  0  0
  5.666328 -1.373059  0.000000 O    0  0  0  0  0  0  0
  5.040302  0.138301  0.000000 O    0  5  0  0  0  0  0
  4.539357 -1.071088  0.000000 C    0  0  0  0  0  0  0
  3.824886 -0.658588  0.000000 F    0  0  0  0  0  0  0
  4.539357 -1.896088  0.000000 F    0  0  0  0  0  0  0
  4.539357 -0.246088  0.000000 F    0  0  0  0  0  0  0
  1  2  1  0  0  0  0
  2  3  1  0  0  0  0
  3  4  1  0  0  0  0
  3  5  1  0  0  0  0
  3  6  1  0  0  0  0
  6  7  2  0  0  0  0
  7  8  1  0  0  0  0
  8  9  4  0  0  0  0
  9  1  1  0  0  0  0
  9 10  4  0  0  0  0
 10 11  1  0  0  0  0
 11 12  1  0  0  0  0
 12  8  1  0  0  0  0
 10 13  1  0  0  0  0
  4 14  2  0  0  0  0
 14 15  1  0  0  0  0
 15 16  2  0  0  0  0
 16 17  1  0  0  0  0
 17 18  2  0  0  0  0
 18  4  1  0  0  0  0
  5 19  2  0  0  0  0
 19 20  1  0  0  0  0
 20 21  2  0  0  0  0
 21 22  1  0  0  0  0
 22 23  2  0  0  0  0
 23  5  1  0  0  0  0
  7 24  1  0  0  0  0
 24 25  2  0  0  0  0
 25 26  1  0  0  0  0
 26 27  2  0  0  0  0
 27  6  1  0  0  0  0
  1 28  1  0  0  0  0
  1 29  1  0  0  0  0
 28 30  3  0  0  0  0
 29 31  3  0  0  0  0
 32 33  2  0  0  0  0
 32 34  2  0  0  0  0
 32 35  1  0  0  0  0
 32 36  1  0  0  0  0
 36 37  1  0  0  0  0
 36 38  1  0  0  0  0
 36 39  1  0  0  0  0
M  END
> <NMREDATA_VERSION>
1.1

> <NMREDATA_LEVEL>
0

> <NMREDATA_SOLVENT>
CD3CN

> <NMREDATA_TEMPERATURE>
298

> <NMREDATA_FORMULA>
C26H26F3N2O5PRhS

> <NMREDATA_SMILES>
FC(S(=O)(=O)O)(F)F.[O]#C[Rh]1(C#[O])CP(c2ccccc2)(c2ccccc2)c2c(N3C1N(C)CC3)cccc2

> <NMREDATA_ASSIGNMENT>
Rh1, 731.00, 1

> <NMREDATA_1D_103Rh>
731.00, L=Rh1

$$$$
RhMan0925_0230.mol
  ChemDraw12182510022D

M  V30 COUNTS 31 33 0 0 0
 -3.030550  1.060162  0.000000 Rh   0  0  0  0  0  0  0
 -2.447188  0.476800  0.000000 C    0  0  0  0  0  0  0
 -2.660713 -0.320089  0.000000 N    0  0  0  0  0  0  0
 -3.244076 -0.903452  0.000000 C    0  0  0  0  0  0  0
 -4.069076 -0.903452  0.000000 C    0  0  0  0  0  0  0
 -4.481576 -0.188981  0.000000 N    0  0  0  0  0  0  0
 -4.695102  0.607907  0.000000 C    0  0  0  0  0  0  0
 -5.518971  0.651085  0.000000 N    0  0  0  0  0  0  0
 -5.814625 -0.119119  0.000000 C    0  0  0  0  0  0  0
 -5.173480 -0.638309  0.000000 C    0  0  0  0  0  0  0
 -5.968299  1.342988  0.000000 C    0  0  0  0  0  0  0
 -4.481576 -1.617923  0.000000 C    0  0  0  0  0  0  0
 -4.069076 -2.332394  0.000000 C    0  0  0  0  0  0  0
 -3.244076 -2.332394  0.000000 C    0  0  0  0  0  0  0
 -2.831576 -1.617923  0.000000 C    0  0  0  0  0  0  0
 -2.618050  1.774634  0.000000 C    0  0  0  0  0  0  0
 -3.613913  1.643526  0.000000 C    0  0  0  0  0  0  0
 -2.010161  2.332394  0.000000 O    0  0  0  0  0  0  0
 -4.197277  2.226889  0.000000 O    0  0  0  0  0  0  0
 -1.968810 -0.769416  0.000000 C    0  0  0  0  0  0  0
 -1.327665 -0.250227  0.000000 C    0  0  0  0  0  0  0
 -1.623318  0.519977  0.000000 N    0  0  0  0  0  0  0
 -1.173991  1.211880  0.000000 C    0  0  0  0  0  0  0
  5.253828 -0.658588  0.000000 S    0  0  0  0  0  0  0
  5.968299 -0.246088  0.000000 O    0  0  0  0  0  0  0
  5.666328 -1.373059  0.000000 O    0  0  0  0  0  0  0
  5.040302  0.138301  0.000000 O    0  5  0  0  0  0  0
  4.539357 -1.071088  0.000000 C    0  0  0  0  0  0  0
  3.824886 -0.658588  0.000000 F    0  0  0  0  0  0  0
  4.539357 -1.896088  0.000000 F    0  0  0  0  0  0  0
  4.539357 -0.246088  0.000000 F    0  0  0  0  0  0  0
  1  2  1  0  0  0  0
  2  3  4  0  0  0  0
  3  4  1  0  0  0  0
  4  5  2  0  0  0  0
  5  6  1  0  0  0  0
  6  7  4  0  0  0  0
  7  1  1  0  0  0  0
  7  8  4  0  0  0  0
  8  9  1  0  0  0  0
  9 10  1  0  0  0  0
 10  6  1  0  0  0  0
  8 11  1  0  0  0  0
  5 12  1  0  0  0  0
 12 13  2  0  0  0  0
 13 14  1  0  0  0  0
 14 15  2  0  0  0  0
 15  4  1  0  0  0  0
  1 16  1  0  0  0  0
  1 17  1  0  0  0  0
 16 18  3  0  0  0  0
 17 19  3  0  0  0  0
  3 20  1  0  0  0  0
 20 21  2  0  0  0  0
 21 22  1  0  0  0  0
 22  2  4  0  0  0  0
 22 23  1  0  0  0  0
 24 25  2  0  0  0  0
 24 26  2  0  0  0  0
 24 27  1  0  0  0  0
 24 28  1  0  0  0  0
 28 29  1  0  0  0  0
 28 30  1  0  0  0  0
 28 31  1  0  0  0  0
M  END
> <NMREDATA_VERSION>
1.1

> <NMREDATA_LEVEL>
0

> <NMREDATA_SOLVENT>
CD3CN

> <NMREDATA_TEMPERATURE>
298

> <NMREDATA_FORMULA>
C17H19F3N4O5RhS

> <NMREDATA_SMILES>
FC(S(=O)(=O)O)(F)F.[O]#C[Rh]1(C#[O])C2N(C)CCN2c2c(N3C1N(C)C=C3)cccc2

> <NMREDATA_ASSIGNMENT>
Rh1, 542.00, 1

> <NMREDATA_1D_103Rh>
542.00, L=Rh1

$$$$
RhMan0925_0231.mol
  ChemDraw12182510062D

M  V30 COUNTS 48 53 0 0 0
 -2.854970  1.197727  0.000000 Rh   0  5  0  0  0  0  0
 -2.271607  0.614364  0.000000 C    0  0  0  0  0  0  0
 -4.072646  0.367347  0.000000 C    0  0  0  0  0  0  0
 -2.442470  1.912198  0.000000 C    0  0  0  0  0  0  0
 -3.438332  1.781090  0.000000 C    0  0  0  0  0  0  0
 -1.834580  2.469958  0.000000 O    0  0  0  0  0  0  0
 -4.021696  2.364453  0.000000 O    0  0  0  0  0  0  0
 -3.489283 -0.216017  0.000000 C    0  0  0  0  0  0  0
 -4.072646 -0.457653  0.000000 P    0  3  0  0  0  0  0
 -2.271607 -0.210636  0.000000 P    0  3  0  0  0  0  0
 -3.489283 -1.041017  0.000000 C    0  0  0  0  0  0  0
 -2.664283 -1.041017  0.000000 C    0  0  0  0  0  0  0
 -3.901783 -1.755487  0.000000 C    0  0  0  0  0  0  0
 -3.489283 -2.469958  0.000000 C    0  0  0  0  0  0  0
 -2.664283 -2.469958  0.000000 C    0  0  0  0  0  0  0
 -2.251783 -1.755487  0.000000 C    0  0  0  0  0  0  0
 -4.656009 -1.041017  0.000000 C    0  0  0  0  0  0  0
 -4.727163  0.044575  0.000000 C    0  0  0  0  0  0  0
 -1.688243 -0.793999  0.000000 C    0  0  0  0  0  0  0
 -1.688243  0.372727  0.000000 C    0  0  0  0  0  0  0
 -5.452898 -0.827490  0.000000 C    0  0  0  0  0  0  0
 -6.036261 -1.410854  0.000000 C    0  0  0  0  0  0  0
 -5.822735 -2.207742  0.000000 C    0  0  0  0  0  0  0
 -5.025846 -2.421268  0.000000 C    0  0  0  0  0  0  0
 -4.442483 -1.837905  0.000000 C    0  0  0  0  0  0  0
 -1.901769 -1.590888  0.000000 C    0  0  0  0  0  0  0
 -1.318406 -2.174251  0.000000 C    0  0  0  0  0  0  0
 -0.521518 -1.960725  0.000000 C    0  0  0  0  0  0  0
 -0.307991 -1.163837  0.000000 C    0  0  0  0  0  0  0
 -0.891355 -0.580473  0.000000 C    0  0  0  0  0  0  0
 -0.891355  0.159201  0.000000 C    0  0  0  0  0  0  0
 -0.307991  0.742565  0.000000 C    0  0  0  0  0  0  0
 -0.521518  1.539453  0.000000 C    0  0  0  0  0  0  0
 -1.318406  1.752979  0.000000 C    0  0  0  0  0  0  0
 -1.901769  1.169616  0.000000 C    0  0  0  0  0  0  0
 -4.619479  0.862517  0.000000 C    0  0  0  0  0  0  0
 -5.273994  1.364745  0.000000 C    0  0  0  0  0  0  0
 -6.036195  1.049031  0.000000 C    0  0  0  0  0  0  0
 -6.143880  0.231090  0.000000 C    0  0  0  0  0  0  0
 -5.489363 -0.271139  0.000000 C    0  0  0  0  0  0  0
  5.429409 -0.521024  0.000000 S    0  0  0  0  0  0  0
  6.143880 -0.108524  0.000000 O    0  0  0  0  0  0  0
  5.841909 -1.235494  0.000000 O    0  0  0  0  0  0  0
  5.215883  0.275865  0.000000 O    0  5  0  0  0  0  0
  4.714938 -0.933524  0.000000 C    0  0  0  0  0  0  0
  4.000467 -0.521024  0.000000 F    0  0  0  0  0  0  0
  4.714938 -1.758524  0.000000 F    0  0  0  0  0  0  0
  4.714938 -0.108524  0.000000 F    0  0  0  0  0  0  0
  1  2  1  0  0  0  0
  3  1  1  0  0  0  0
  1  4  1  0  0  0  0
  1  5  1  0  0  0  0
  4  6  3  0  0  0  0
  5  7  3  0  0  0  0
  3  8  1  0  0  0  0
  8  2  1  0  0  0  0
  3  9  1  0  0  0  0
  2 10  1  0  0  0  0
  9 11  1  0  0  0  0
 11 12  2  0  0  0  0
 12 10  1  0  0  0  0
 11 13  1  0  0  0  0
 13 14  2  0  0  0  0
 14 15  1  0  0  0  0
 15 16  2  0  0  0  0
 16 12  1  0  0  0  0
  9 17  1  0  0  0  0
  9 18  1  0  0  0  0
 10 19  1  0  0  0  0
 10 20  1  0  0  0  0
 17 21  2  0  0  0  0
 21 22  1  0  0  0  0
 22 23  2  0  0  0  0
 23 24  1  0  0  0  0
 24 25  2  0  0  0  0
 25 17  1  0  0  0  0
 19 26  2  0  0  0  0
 26 27  1  0  0  0  0
 27 28  2  0  0  0  0
 28 29  1  0  0  0  0
 29 30  2  0  0  0  0
 30 19  1  0  0  0  0
 20 31  2  0  0  0  0
 31 32  1  0  0  0  0
 32 33  2  0  0  0  0
 33 34  1  0  0  0  0
 34 35  2  0  0  0  0
 35 20  1  0  0  0  0
 18 36  2  0  0  0  0
 36 37  1  0  0  0  0
 37 38  2  0  0  0  0
 38 39  1  0  0  0  0
 39 40  2  0  0  0  0
 40 18  1  0  0  0  0
 41 42  2  0  0  0  0
 41 43  2  0  0  0  0
 41 44  1  0  0  0  0
 41 45  1  0  0  0  0
 45 46  1  0  0  0  0
 45 47  1  0  0  0  0
 45 48  1  0  0  0  0
M  END
> <NMREDATA_VERSION>
1.1

> <NMREDATA_LEVEL>
0

> <NMREDATA_SOLVENT>
CD3CN

> <NMREDATA_TEMPERATURE>
298

> <NMREDATA_FORMULA>
C36H31F3O5P2RhS

> <NMREDATA_SMILES>
FC(S(=O)(=O)O)(F)F.[O]#C[Rh]1(C#[O])C2CC1P(c1ccccc1)(c1ccccc1)c1c(P2(c2ccccc2)c2ccccc2)cccc1

> <NMREDATA_ASSIGNMENT>
Rh1, 983.00, 1

> <NMREDATA_1D_103Rh>
983.00, L=Rh1

$$$$
RhMan0925_0232.mol
  ChemDraw12182510092D

M  V30 COUNTS 11 9 0 0 0
  2.956252  0.343750  0.000000 Rh   0  1  0  0  0  0  0
  2.956252 -0.481250  0.000000 O    0  0  0  0  0  0  0
  2.241780  0.756250  0.000000 O    0  0  0  0  0  0  0
  3.670722  0.756250  0.000000 O    0  0  0  0  0  0  0
  2.956252  1.168750  0.000000 O    0  0  0  0  0  0  0
  3.670722 -0.068750  0.000000 O    0  0  0  0  0  0  0
  2.241780 -0.068750  0.000000 O    0  0  0  0  0  0  0
 -2.956252 -0.343750  0.000000 N    0  3  0  0  0  0  0
 -2.241780  0.068750  0.000000 O    0  0  0  0  0  0  0
 -3.670722  0.068750  0.000000 O    0  5  0  0  0  0  0
 -2.956252 -1.168750  0.000000 O    0  5  0  0  0  0  0
  1  2  1  0  0  0  0
  1  3  1  0  0  0  0
  1  4  1  0  0  0  0
  1  5  1  0  0  0  0
  1  6  1  0  0  0  0
  1  7  1  0  0  0  0
  8  9  2  0  0  0  0
  8 10  1  0  0  0  0
  8 11  1  0  0  0  0
M  END
> <NMREDATA_VERSION>
1.1

> <NMREDATA_LEVEL>
0

> <NMREDATA_SOLVENT>
H2O/H3PO4

> <NMREDATA_TEMPERATURE>
300

> <NMREDATA_FORMULA>
H9NO9Rh

> <NMREDATA_SMILES>
O[Rh](O)(O)(O)(O)O.ON(=O)O

> <NMREDATA_ASSIGNMENT>
Rh1, 9902.00, 1

> <NMREDATA_1D_103Rh>
9902.00, L=Rh1

$$$$
LaurenceCarlton-2008_00001.mol
  ChemDraw08202414232D

 55 62  0  0  0  0  0  0  0  0999 V2000
    0.0296    0.8164    0.0000 C    0  0  0  0  0  0  0  0  0  0  0  0
   -2.8676   -0.0057    0.0000 C    0  0  0  0  0  0  0  0  0  0  0  0
   -3.2787   -0.7177    0.0000 C    0  0  0  0  0  0  0  0  0  0  0  0
   -3.2787    0.7063    0.0000 C    0  0  0  0  0  0  0  0  0  0  0  0
   -4.1008   -0.7177    0.0000 C    0  0  0  0  0  0  0  0  0  0  0  0
   -4.1008    0.7063    0.0000 C    0  0  0  0  0  0  0  0  0  0  0  0
   -4.5119   -0.0057    0.0000 C    0  0  0  0  0  0  0  0  0  0  0  0
    0.0296   -0.0057    0.0000 Rh   0  0  0  0  0  0  0  0  0  0  0  0
    0.0296   -0.8279    0.0000 C    0  0  0  0  0  0  0  0  0  0  0  0
    0.0296   -1.6500    0.0000 C    0  0  0  0  0  0  0  0  0  0  0  0
    0.0296   -2.4721    0.0000 C    0  0  0  0  0  0  0  0  0  0  0  0
    0.7416   -2.8832    0.0000 C    0  0  0  0  0  0  0  0  0  0  0  0
   -0.6824   -2.8832    0.0000 C    0  0  0  0  0  0  0  0  0  0  0  0
    0.7416   -3.7053    0.0000 C    0  0  0  0  0  0  0  0  0  0  0  0
   -0.6824   -3.7053    0.0000 C    0  0  0  0  0  0  0  0  0  0  0  0
    0.0296   -4.1164    0.0000 C    0  0  0  0  0  0  0  0  0  0  0  0
   -2.0455   -0.0057    0.0000 P    0  0  0  0  0  0  0  0  0  0  0  0
    2.0455   -0.0057    0.0000 P    0  0  0  0  0  0  0  0  0  0  0  0
    2.0455    0.8164    0.0000 C    0  0  0  0  0  0  0  0  0  0  0  0
    1.3335    1.2275    0.0000 C    0  0  0  0  0  0  0  0  0  0  0  0
    2.7575    1.2275    0.0000 C    0  0  0  0  0  0  0  0  0  0  0  0
    1.3335    2.0496    0.0000 C    0  0  0  0  0  0  0  0  0  0  0  0
    2.7575    2.0496    0.0000 C    0  0  0  0  0  0  0  0  0  0  0  0
    2.0455    2.4607    0.0000 C    0  0  0  0  0  0  0  0  0  0  0  0
    2.0455   -0.8279    0.0000 C    0  0  0  0  0  0  0  0  0  0  0  0
    2.7575   -1.2389    0.0000 C    0  0  0  0  0  0  0  0  0  0  0  0
    1.3335   -1.2389    0.0000 C    0  0  0  0  0  0  0  0  0  0  0  0
    2.7575   -2.0611    0.0000 C    0  0  0  0  0  0  0  0  0  0  0  0
    1.3335   -2.0611    0.0000 C    0  0  0  0  0  0  0  0  0  0  0  0
    2.0455   -2.4721    0.0000 C    0  0  0  0  0  0  0  0  0  0  0  0
   -2.0455    0.8164    0.0000 C    0  0  0  0  0  0  0  0  0  0  0  0
   -2.7575    1.2275    0.0000 C    0  0  0  0  0  0  0  0  0  0  0  0
   -1.3335    1.2275    0.0000 C    0  0  0  0  0  0  0  0  0  0  0  0
   -2.7575    2.0496    0.0000 C    0  0  0  0  0  0  0  0  0  0  0  0
   -1.3335    2.0496    0.0000 C    0  0  0  0  0  0  0  0  0  0  0  0
   -2.0455    2.4607    0.0000 C    0  0  0  0  0  0  0  0  0  0  0  0
   -2.0455   -0.8279    0.0000 C    0  0  0  0  0  0  0  0  0  0  0  0
   -1.3335   -1.2389    0.0000 C    0  0  0  0  0  0  0  0  0  0  0  0
   -2.7575   -1.2389    0.0000 C    0  0  0  0  0  0  0  0  0  0  0  0
   -1.3335   -2.0611    0.0000 C    0  0  0  0  0  0  0  0  0  0  0  0
   -2.7575   -2.0611    0.0000 C    0  0  0  0  0  0  0  0  0  0  0  0
   -2.0455   -2.4721    0.0000 C    0  0  0  0  0  0  0  0  0  0  0  0
    4.1008    0.7063    0.0000 C    0  0  0  0  0  0  0  0  0  0  0  0
    4.5119   -0.0057    0.0000 C    0  0  0  0  0  0  0  0  0  0  0  0
    3.2787    0.7063    0.0000 C    0  0  0  0  0  0  0  0  0  0  0  0
    4.1008   -0.7177    0.0000 C    0  0  0  0  0  0  0  0  0  0  0  0
    2.8676   -0.0057    0.0000 C    0  0  0  0  0  0  0  0  0  0  0  0
    3.2787   -0.7177    0.0000 C    0  0  0  0  0  0  0  0  0  0  0  0
    0.0296    1.6414    0.0000 N    0  0  0  0  0  0  0  0  0  0  0  0
    0.0296    2.4664    0.0000 C    0  0  0  0  0  0  0  0  0  0  0  0
    0.7441    2.8789    0.0000 C    0  0  0  0  0  0  0  0  0  0  0  0
    0.7441    3.7039    0.0000 C    0  0  0  0  0  0  0  0  0  0  0  0
    0.0296    4.1164    0.0000 C    0  0  0  0  0  0  0  0  0  0  0  0
   -0.6849    3.7039    0.0000 C    0  0  0  0  0  0  0  0  0  0  0  0
   -0.6849    2.8789    0.0000 C    0  0  0  0  0  0  0  0  0  0  0  0
  2  3  1  0  0
  2  4  2  0  0
  3  5  2  0  0
  4  6  1  0  0
  5  7  1  0  0
  6  7  2  0  0
  8  9  1  0  0
  9 10  3  0  0
 11 12  1  0  0
 11 13  2  0  0
 12 14  2  0  0
 13 15  1  0  0
 14 16  1  0  0
 15 16  2  0  0
 10 11  1  0  0
  8 17  1  0  0
  8 18  1  0  0
 19 20  1  0  0
 19 21  2  0  0
 20 22  2  0  0
 21 23  1  0  0
 22 24  1  0  0
 23 24  2  0  0
 18 19  1  0  0
 25 26  1  0  0
 25 27  2  0  0
 26 28  2  0  0
 27 29  1  0  0
 28 30  1  0  0
 29 30  2  0  0
 18 25  1  0  0
 31 32  1  0  0
 31 33  2  0  0
 32 34  2  0  0
 33 35  1  0  0
 34 36  1  0  0
 35 36  2  0  0
 17 31  1  0  0
 37 38  1  0  0
 37 39  2  0  0
 38 40  2  0  0
 39 41  1  0  0
 40 42  1  0  0
 41 42  2  0  0
 17 37  1  0  0
  2 17  1  0  0
 43 44  1  0  0
 43 45  2  0  0
 44 46  2  0  0
 45 47  1  0  0
 46 48  1  0  0
 47 48  2  0  0
 18 47  1  0  0
  1  8  1  0  0
  1 49  3  0  0
 49 50  1  0  0
 50 51  2  0  0
 51 52  1  0  0
 52 53  2  0  0
 53 54  1  0  0
 54 55  2  0  0
 55 50  1  0  0
M  END
> <NMREDATA_VERSION>
1.1

> <NMREDATA_LEVEL>
0

> <NMREDATA_SOLVENT>
toluene-d8

> <NMREDATA_TEMPERATURE>
300

> <NMREDATA_FORMULA>
C51H43NP2Rh

> <NMREDATA_SMILES>
c1ccc(cc1)C#C[Rh](P(c1ccccc1)(c1ccccc1)c1ccccc1)(P(c1ccccc1)(c1ccccc1)c1ccccc1)C#Nc1ccccc1

> <NMREDATA_ASSIGNMENT>
Rh8, -687.00, 8

> <NMREDATA_1D_103Rh>
-687.00, L=Rh8

$$$$
LaurenceCarlton-2008_00002.mol
  ChemDraw08202414272D

 59 60  0  0  0  0  0  0  0  0999 V2000
   -4.6203    0.1879    0.0000 C    0  0  0  0  0  0  0  0  0  0  0  0
    1.7778    4.6978    0.0000 C    0  0  0  0  0  0  0  0  0  0  0  0
    2.4865    5.1116    0.0000 C    0  0  0  0  0  0  0  0  0  0  0  0
    1.7767    3.8757    0.0000 C    0  0  0  0  0  0  0  0  0  0  0  0
    3.1994    4.7011    0.0000 C    0  0  0  0  0  0  0  0  0  0  0  0
    2.4843    3.4677    0.0000 C    0  0  0  0  0  0  0  0  0  0  0  0
    3.1980    3.8791    0.0000 C    0  0  0  0  0  0  0  0  0  0  0  0
   -3.1993   -1.9476    0.0000 C    0  0  0  0  0  0  0  0  0  0  0  0
   -3.1963   -1.1275    0.0000 C    0  0  0  0  0  0  0  0  0  0  0  0
   -3.9112   -2.3608    0.0000 C    0  0  0  0  0  0  0  0  0  0  0  0
   -3.9102   -0.7188    0.0000 C    0  0  0  0  0  0  0  0  0  0  0  0
   -4.6179   -1.9492    0.0000 C    0  0  0  0  0  0  0  0  0  0  0  0
   -4.6199   -1.1270    0.0000 C    0  0  0  0  0  0  0  0  0  0  0  0
   -0.2601    0.5678    0.0000 Rh   0  0  0  0  0  0  0  0  0  0  0  0
   -0.2601   -0.5010    0.0000 C    0  0  0  0  0  0  0  0  0  0  0  0
    0.4850   -0.8485    0.0000 O    0  0  0  0  0  0  0  0  0  0  0  0
   -0.8899   -1.0295    0.0000 C    0  0  0  0  0  0  0  0  0  0  0  0
   -0.7471   -1.8391    0.0000 C    0  0  0  0  0  0  0  0  0  0  0  0
    0.0254   -2.1203    0.0000 C    0  0  0  0  0  0  0  0  0  0  0  0
    0.1682   -2.9300    0.0000 C    0  0  0  0  0  0  0  0  0  0  0  0
    0.9408   -3.2111    0.0000 C    0  0  0  0  0  0  0  0  0  0  0  0
    1.0835   -4.0208    0.0000 C    0  0  0  0  0  0  0  0  0  0  0  0
    1.8561   -4.3020    0.0000 C    0  0  0  0  0  0  0  0  0  0  0  0
    1.9988   -5.1116    0.0000 C    0  0  0  0  0  0  0  0  0  0  0  0
   -0.8903    1.3690    0.0000 C    0  0  0  0  0  0  0  0  0  0  0  0
    0.8213   -0.0561    0.0000 C    0  0  0  0  0  0  0  0  0  0  0  0
   -1.4737    1.9524    0.0000 O    0  0  0  0  0  0  0  0  0  0  0  0
    1.5358   -0.4686    0.0000 O    0  0  0  0  0  0  0  0  0  0  0  0
    2.4843    2.1522    0.0000 P    0  0  0  0  0  0  0  0  0  0  0  0
   -2.0571   -0.4698    0.0000 P    0  0  0  0  0  0  0  0  0  0  0  0
   -2.0571   -1.5386    0.0000 N    0  0  0  0  0  0  0  0  0  0  0  0
   -3.1963    0.1879    0.0000 N    0  0  0  0  0  0  0  0  0  0  0  0
    1.5587    2.6866    0.0000 N    0  0  0  0  0  0  0  0  0  0  0  0
    2.4843    1.3301    0.0000 N    0  0  0  0  0  0  0  0  0  0  0  0
   -2.0571    0.5990    0.0000 N    0  0  0  0  0  0  0  0  0  0  0  0
    3.1963    2.5633    0.0000 N    0  0  0  0  0  0  0  0  0  0  0  0
    3.9083    2.1522    0.0000 C    0  0  0  0  0  0  0  0  0  0  0  0
    4.6203    2.5633    0.0000 C    0  0  0  0  0  0  0  0  0  0  0  0
   -2.7691    1.0101    0.0000 C    0  0  0  0  0  0  0  0  0  0  0  0
   -2.7691    1.8322    0.0000 C    0  0  0  0  0  0  0  0  0  0  0  0
   -3.9083   -0.2231    0.0000 C    0  0  0  0  0  0  0  0  0  0  0  0
    1.7723    0.9190    0.0000 C    0  0  0  0  0  0  0  0  0  0  0  0
    1.7723    0.0969    0.0000 C    0  0  0  0  0  0  0  0  0  0  0  0
    1.5587    3.5088    0.0000 C    0  0  0  0  0  0  0  0  0  0  0  0
    0.8468    3.9198    0.0000 C    0  0  0  0  0  0  0  0  0  0  0  0
   -1.3120   -1.8860    0.0000 C    0  0  0  0  0  0  0  0  0  0  0  0
   -1.2404   -2.7050    0.0000 C    0  0  0  0  0  0  0  0  0  0  0  0
    0.8468    2.2756    0.0000 C    0  0  0  0  0  0  0  0  0  0  0  0
    3.1963    0.9190    0.0000 C    0  0  0  0  0  0  0  0  0  0  0  0
   -3.1963    1.0101    0.0000 C    0  0  0  0  0  0  0  0  0  0  0  0
   -2.6869   -2.0670    0.0000 C    0  0  0  0  0  0  0  0  0  0  0  0
   -3.3167   -2.5955    0.0000 O    0  0  0  0  0  0  0  0  0  0  0  0
   -3.1963    1.8322    0.0000 O    0  0  0  0  0  0  0  0  0  0  0  0
    3.9083    0.5080    0.0000 O    0  0  0  0  0  0  0  0  0  0  0  0
    0.1348    1.8645    0.0000 O    0  0  0  0  0  0  0  0  0  0  0  0
   -4.0213    1.0101    0.0000 H    0  0  0  0  0  0  0  0  0  0  0  0
   -2.1036   -2.6504    0.0000 H    0  0  0  0  0  0  0  0  0  0  0  0
    2.7838    0.2046    0.0000 H    0  0  0  0  0  0  0  0  0  0  0  0
    0.4343    2.9900    0.0000 H    0  0  0  0  0  0  0  0  0  0  0  0
  2  3  1  0  0
  2  4  2  0  0
  3  5  2  0  0
  4  6  1  0  0
  5  7  1  0  0
  6  7  2  0  0
  8  9  1  0  0
  8 10  2  0  0
  9 11  2  0  0
 10 12  1  0  0
 11 13  1  0  0
 12 13  2  0  0
 14 15  1  0  0
 15 16  2  0  0
 15 17  1  0  0
 17 18  1  0  0
 18 19  1  0  0
 19 20  1  0  0
 20 21  1  0  0
 21 22  1  0  0
 22 23  1  0  0
 23 24  1  0  0
 14 25  1  0  0
 14 26  1  0  0
 25 27  3  0  0
 26 28  3  0  0
 14 29  1  0  0
 14 30  1  0  0
  9 30  1  0  0
  6 29  1  0  0
 30 31  1  0  0
 30 32  1  0  0
 29 33  1  0  0
 29 34  1  0  0
 30 35  2  0  0
 29 36  2  0  0
 36 37  1  0  0
 37 38  1  0  0
 35 39  1  0  0
 39 40  1  0  0
 32 41  1  0  0
  1 41  1  0  0
 34 42  1  0  0
 42 43  1  0  0
 33 44  1  0  0
 44 45  1  0  0
 31 46  1  0  0
 46 47  1  0  0
 33 48  1  0  0
 34 49  1  0  0
 32 50  1  0  0
 31 51  1  0  0
 51 52  2  0  0
 50 53  2  0  0
 49 54  2  0  0
 48 55  2  0  0
 50 56  1  0  0
 51 57  1  0  0
 49 58  1  0  0
 48 59  1  0  0
M  END
> <NMREDATA_VERSION>
1.1

> <NMREDATA_LEVEL>
0

> <NMREDATA_SOLVENT>
toluene

> <NMREDATA_TEMPERATURE>
223

> <NMREDATA_FORMULA>
C39H61N6O7P2Rh

> <NMREDATA_SMILES>
CCCCCCCCC(=O)[Rh]([P](=NCC)(c1ccccc1)(N(C=O)CC)N(C=O)CC)([P](=NCC)(c1ccccc1)(N(C=O)CC)N(C=O)CC)(C#[O])C#[O]

> <NMREDATA_ASSIGNMENT>
Rh14, -70.00, 14

> <NMREDATA_1D_103Rh>
-70.00, L=Rh14

$$$$
LaurenceCarlton-2008_00003.mol
  ChemDraw08192411092D

M  V30 COUNTS 15 22 0 0 0
 -1.003730  1.374296  0.000000 C    0  0  0  0  0  0  0
 -0.591229  0.659832  0.000000 C    0  0  0  0  0  0  0
 -1.828731  1.374296  0.000000 C    0  0  0  0  0  0  0
 -1.003730 -0.054631  0.000000 C    0  0  0  0  0  0  0
 -2.241232  0.659832  0.000000 C    0  0  0  0  0  0  0
 -1.828731 -0.054631  0.000000 C    0  0  0  0  0  0  0
 -2.241232 -0.769095  0.000000 C    0  0  0  0  0  0  0
 -0.063374 -0.171659  0.000000 Rh   0  0  0  0  0  0  0
 -0.599913 -1.325692  0.000000 C    0  0  0  0  0  0  0
  0.381405 -1.892214  0.000000 C    0  0  0  0  0  0  0
  1.573788  1.892214  0.000000 C    0  0  0  0  0  0  0
  2.241232  1.407324  0.000000 C    0  0  0  0  0  0  0
  0.906343  1.407324  0.000000 C    0  0  0  0  0  0  0
  1.986288  0.622704  0.000000 C    0  0  0  0  0  0  0
  1.161287  0.622704  0.000000 C    0  0  0  0  0  0  0
  1  2  1  0  0  0  0
  1  3  2  0  0  0  0
  2  4  1  0  0  0  0
  3  5  1  0  0  0  0
  4  6  1  0  0  0  0
  5  6  2  0  0  0  0
  6  7  1  0  0  0  0
  8  9  1  0  0  0  0
  9 10  1  0  0  0  0
 11 12  1  0  0  0  0
 11 13  1  0  0  0  0
 12 14  1  0  0  0  0
 13 15  1  0  0  0  0
 14 15  1  0  0  0  0
  4  8  1  0  0  0  0
  2  8  1  0  0  0  0
 13  8  1  0  0  0  0
 15  8  1  0  0  0  0
 14  8  1  0  0  0  0
 12  8  1  0  0  0  0
 11  8  1  0  0  0  0
  8 10  1  0  0  0  0
M  END
> <NMREDATA_VERSION>
1.1

> <NMREDATA_LEVEL>
0

> <NMREDATA_SOLVENT>
toluene-d8

> <NMREDATA_TEMPERATURE>
193

> <NMREDATA_FORMULA>
C14H17Rh

> <NMREDATA_SMILES>
CC1=CC=CC2C1[Rh]134562(CC1)C1C5C4C3C61

> <NMREDATA_ASSIGNMENT>
Rh8, -374.00, 8

> <NMREDATA_1D_103Rh>
-374.00, L=Rh8

$$$$
LaurenceCarlton-2008_00004.mol
  ChemDraw08192411312D

M  V30 COUNTS 15 22 0 0 0
 -1.003730  1.374296  0.000000 C    0  0  0  0  0  0  0
 -0.591229  0.659832  0.000000 C    0  0  0  0  0  0  0
 -1.828731  1.374296  0.000000 C    0  0  0  0  0  0  0
 -1.003730 -0.054631  0.000000 C    0  0  0  0  0  0  0
 -2.241232  0.659832  0.000000 C    0  0  0  0  0  0  0
 -1.828731 -0.054631  0.000000 C    0  0  0  0  0  0  0
 -2.241232 -0.769095  0.000000 C    0  0  0  0  0  0  0
 -0.063374 -0.171659  0.000000 Rh   0  0  0  0  0  0  0
 -0.599913 -1.325692  0.000000 C    0  0  0  0  0  0  0
  0.381405 -1.892214  0.000000 C    0  0  0  0  0  0  0
  1.573788  1.892214  0.000000 C    0  0  0  0  0  0  0
  2.241232  1.407324  0.000000 C    0  0  0  0  0  0  0
  0.906343  1.407324  0.000000 C    0  0  0  0  0  0  0
  1.986288  0.622704  0.000000 C    0  0  0  0  0  0  0
  1.161287  0.622704  0.000000 C    0  0  0  0  0  0  0
  1  2  1  0  0  0  0
  1  3  2  0  0  0  0
  2  4  1  0  0  0  0
  3  5  1  0  0  0  0
  4  6  1  0  0  0  0
  5  6  2  0  0  0  0
  6  7  1  0  0  0  0
  8  9  1  0  0  0  0
  9 10  1  0  0  0  0
 11 12  1  0  0  0  0
 11 13  1  0  0  0  0
 12 14  1  0  0  0  0
 13 15  1  0  0  0  0
 14 15  1  0  0  0  0
  4  8  1  0  0  0  0
  2  8  1  0  0  0  0
 13  8  1  0  0  0  0
 15  8  1  0  0  0  0
 14  8  1  0  0  0  0
 12  8  1  0  0  0  0
 11  8  1  0  0  0  0
  8 10  1  0  0  0  0
M  END
> <NMREDATA_VERSION>
1.1

> <NMREDATA_LEVEL>
0

> <NMREDATA_SOLVENT>
toluene-d8

> <NMREDATA_TEMPERATURE>
193

> <NMREDATA_FORMULA>
C14H17Rh

> <NMREDATA_SMILES>
CC1=CC=CC2C1[Rh]134562(CC1)C1C5C4C3C61

> <NMREDATA_ASSIGNMENT>
Rh8, -333.00, 8

> <NMREDATA_1D_103Rh>
-333.00, L=Rh8

$$$$
LaurenceCarlton-2008_00005.mol
  ChemDraw08192411102D

M  V30 COUNTS 10 16 0 0 0
 -0.442013 -0.200956  0.000000 Rh   0  0  0  0  0  0  0
 -0.444522 -1.027299  0.000000 C    0  0  0  0  0  0  0
  0.155924 -0.807891  0.000000 C    0  0  0  0  0  0  0
 -1.158903  0.210055  0.000000 C    0  0  0  0  0  0  0
 -0.596029  0.567110  0.000000 C    0  0  0  0  0  0  0
  1.158903  0.837334  0.000000 C    0  0  0  0  0  0  0
  0.572468  1.027299  0.000000 C    0  0  0  0  0  0  0
  1.158903  0.222002  0.000000 C    0  0  0  0  0  0  0
  0.209076  0.527600  0.000000 C    0  0  0  0  0  0  0
  0.572468  0.027901  0.000000 C    0  0  0  0  0  0  0
  1  2  1  0  0  0  0
  2  3  1  0  0  0  0
  1  4  1  0  0  0  0
  4  5  1  0  0  0  0
  6  7  1  0  0  0  0
  6  8  1  0  0  0  0
  7  9  1  0  0  0  0
  8 10  1  0  0  0  0
  9 10  1  0  0  0  0
  5  1  1  0  0  0  0
  1  3  1  0  0  0  0
  1  9  1  0  0  0  0
 10  1  1  0  0  0  0
  8  1  1  0  0  0  0
  7  1  1  0  0  0  0
  6  1  1  0  0  0  0
M  END
> <NMREDATA_VERSION>
1.1

> <NMREDATA_LEVEL>
0

> <NMREDATA_SOLVENT>
acetone

> <NMREDATA_TEMPERATURE>
300

> <NMREDATA_FORMULA>
C9H13Rh

> <NMREDATA_SMILES>
C1C[Rh]234561(CC2)C1C5C4C3C61

> <NMREDATA_ASSIGNMENT>
Rh1, -945.00, 1

> <NMREDATA_1D_103Rh>
-945.00, L=Rh1

$$$$
LaurenceCarlton-2008_00006.mol
  ChemDraw08192411312D

M  V30 COUNTS 27 35 0 0 0
  0.000000  1.035873  0.000000 Rh   0  0  0  0  0  0  0
 -0.716889  1.446884  0.000000 C    0  0  0  0  0  0  0
 -0.154016  1.803939  0.000000 C    0  0  0  0  0  0  0
  1.600917  2.074162  0.000000 C    0  0  0  0  0  0  0
  1.014482  2.264127  0.000000 C    0  0  0  0  0  0  0
  1.600917  1.458831  0.000000 C    0  0  0  0  0  0  0
  0.651090  1.764429  0.000000 C    0  0  0  0  0  0  0
  1.014482  1.264730  0.000000 C    0  0  0  0  0  0  0
  0.000000  0.210873  0.000000 P    0  0  0  0  0  0  0
  0.714471 -0.201627  0.000000 C    0  0  0  0  0  0  0
 -0.714471 -0.201627  0.000000 C    0  0  0  0  0  0  0
  0.000000 -0.614127  0.000000 C    0  0  0  0  0  0  0
 -1.126971  0.512844  0.000000 C    0  0  0  0  0  0  0
 -1.951971  0.512844  0.000000 C    0  0  0  0  0  0  0
 -2.364471 -0.201627  0.000000 C    0  0  0  0  0  0  0
 -1.951971 -0.916098  0.000000 C    0  0  0  0  0  0  0
 -1.126971 -0.916098  0.000000 C    0  0  0  0  0  0  0
  1.126971 -0.916098  0.000000 C    0  0  0  0  0  0  0
  1.951971 -0.916098  0.000000 C    0  0  0  0  0  0  0
  2.364471 -0.201627  0.000000 C    0  0  0  0  0  0  0
  1.951971  0.512844  0.000000 C    0  0  0  0  0  0  0
  1.126971  0.512844  0.000000 C    0  0  0  0  0  0  0
 -0.714471 -1.026627  0.000000 C    0  0  0  0  0  0  0
 -0.714471 -1.851627  0.000000 C    0  0  0  0  0  0  0
  0.000000 -2.264127  0.000000 C    0  0  0  0  0  0  0
  0.714471 -1.851627  0.000000 C    0  0  0  0  0  0  0
  0.714471 -1.026627  0.000000 C    0  0  0  0  0  0  0
  1  2  1  0  0  0  0
  2  3  1  0  0  0  0
  4  5  1  0  0  0  0
  4  6  1  0  0  0  0
  5  7  1  0  0  0  0
  6  8  1  0  0  0  0
  7  8  1  0  0  0  0
  3  1  1  0  0  0  0
  1  7  1  0  0  0  0
  8  1  1  0  0  0  0
  6  1  1  0  0  0  0
  5  1  1  0  0  0  0
  4  1  1  0  0  0  0
  1  9  1  0  0  0  0
  9 10  1  0  0  0  0
  9 11  1  0  0  0  0
  9 12  1  0  0  0  0
 11 13  2  0  0  0  0
 13 14  1  0  0  0  0
 14 15  2  0  0  0  0
 15 16  1  0  0  0  0
 16 17  2  0  0  0  0
 17 11  1  0  0  0  0
 10 18  2  0  0  0  0
 18 19  1  0  0  0  0
 19 20  2  0  0  0  0
 20 21  1  0  0  0  0
 21 22  2  0  0  0  0
 22 10  1  0  0  0  0
 12 23  2  0  0  0  0
 23 24  1  0  0  0  0
 24 25  2  0  0  0  0
 25 26  1  0  0  0  0
 26 27  2  0  0  0  0
 27 12  1  0  0  0  0
M  END
> <NMREDATA_VERSION>
1.1

> <NMREDATA_LEVEL>
0

> <NMREDATA_SOLVENT>
THF

> <NMREDATA_TEMPERATURE>
310

> <NMREDATA_FORMULA>
C25H25PRh

> <NMREDATA_SMILES>
c1ccc(cc1)P([Rh]12345(CC1)C1C4C3C2C51)(c1ccccc1)c1ccccc1

> <NMREDATA_ASSIGNMENT>
Rh1, -1039.00, 1

> <NMREDATA_1D_103Rh>
-1039.00, L=Rh1

$$$$
LaurenceCarlton-2008_00007.mol
  ChemDraw08192411312D

M  V30 COUNTS 28 37 0 0 0
  0.776279  0.493475  0.000000 C    0  0  0  0  0  0  0
 -0.151721  0.109102  0.000000 C    0  0  0  0  0  0  0
  0.150237 -1.017887  0.000000 Rh   0  0  0  0  0  0  0
  0.562753 -0.303413  0.000000 P    0  0  0  0  0  0  0
 -2.060992 -1.569235  0.000000 C    0  0  0  0  0  0  0
 -2.470185 -2.132411  0.000000 C    0  0  0  0  0  0  0
 -2.470185 -1.006058  0.000000 C    0  0  0  0  0  0  0
 -3.132231 -1.917295  0.000000 C    0  0  0  0  0  0  0
 -3.132231 -1.221175  0.000000 C    0  0  0  0  0  0  0
 -0.151721  0.934102  0.000000 C    0  0  0  0  0  0  0
 -0.796732  1.448481  0.000000 C    0  0  0  0  0  0  0
 -1.601048  1.264901  0.000000 C    0  0  0  0  0  0  0
 -1.959002  0.521602  0.000000 C    0  0  0  0  0  0  0
 -1.601048 -0.221698  0.000000 C    0  0  0  0  0  0  0
 -0.796732 -0.405278  0.000000 C    0  0  0  0  0  0  0
  1.573167  0.279950  0.000000 C    0  0  0  0  0  0  0
  2.236961  0.769851  0.000000 C    0  0  0  0  0  0  0
  2.236961  1.594274  0.000000 C    0  0  0  0  0  0  0
  1.573167  2.132411  0.000000 C    0  0  0  0  0  0  0
  0.776279  1.979034  0.000000 C    0  0  0  0  0  0  0
  0.390782  1.249640  0.000000 C    0  0  0  0  0  0  0
  1.324951 -0.619133  0.000000 C    0  0  0  0  0  0  0
  1.324951 -1.444133  0.000000 C    0  0  0  0  0  0  0
  1.969962 -1.958512  0.000000 C    0  0  0  0  0  0  0
  2.774277 -1.774932  0.000000 C    0  0  0  0  0  0  0
  3.132231 -1.031633  0.000000 C    0  0  0  0  0  0  0
  2.774277 -0.288333  0.000000 C    0  0  0  0  0  0  0
  1.969962 -0.104753  0.000000 C    0  0  0  0  0  0  0
  3  4  1  0  0  0  0
  4  1  1  0  0  0  0
  4  2  1  0  0  0  0
  5  6  1  0  0  0  0
  5  7  1  0  0  0  0
  6  8  1  0  0  0  0
  7  9  1  0  0  0  0
  8  9  1  0  0  0  0
  2 10  1  0  0  0  0
 10 11  2  0  0  0  0
 11 12  1  0  0  0  0
 12 13  2  0  0  0  0
 13 14  1  0  0  0  0
 14 15  2  0  0  0  0
 15  2  1  0  0  0  0
  1 16  1  0  0  0  0
 16 17  2  0  0  0  0
 17 18  1  0  0  0  0
 18 19  2  0  0  0  0
 19 20  1  0  0  0  0
 20 21  2  0  0  0  0
 21  1  1  0  0  0  0
  4 22  1  0  0  0  0
 22 23  1  0  0  0  0
 23 24  1  0  0  0  0
 24 25  1  0  0  0  0
 25 26  2  0  0  0  0
 26 27  1  0  0  0  0
 27 28  2  0  0  0  0
 28 22  1  0  0  0  0
 23  3  1  0  0  0  0
 24  3  1  0  0  0  0
  7  3  1  0  0  0  0
  3  5  1  0  0  0  0
  6  3  1  0  0  0  0
  9  3  1  0  0  0  0
  8  3  1  0  0  0  0
M  END
> <NMREDATA_VERSION>
1.1

> <NMREDATA_LEVEL>
0

> <NMREDATA_SOLVENT>
DCCl3

> <NMREDATA_TEMPERATURE>
298

> <NMREDATA_FORMULA>
C26H27PRh

> <NMREDATA_SMILES>
C1=CC=CC(C=C1)P1(C2C=CC=CC=C2)C2C=CC=CC3[Rh]45671(C23)C1C6C5C4C71

> <NMREDATA_ASSIGNMENT>
Rh3, -1116.00, 3

> <NMREDATA_1D_103Rh>
-1116.00, L=Rh3

$$$$

  ACD/LABS02062413512D

 15 16  0  0  0  0  0  0  0  0  1 V2000
   22.8701  -13.1593    0.0000 C    0  0  0  0  0  0  0  0  0  0  0  0
   23.4111  -11.9442    0.0000 C    0  0  0  0  0  0  0  0  0  0  0  0
   23.8585  -14.0492    0.0000 C    0  0  0  0  0  0  0  0  0  0  0  0
   24.7338  -12.0833    0.0000 C    0  0  0  0  0  0  0  0  0  0  0  0
   25.0103  -13.3842    0.0000 C    0  0  0  0  0  0  0  0  0  0  0  0
   21.5692  -13.4358    0.0000 Rh   0  0  0  0  0  0  0  0  0  0  0  0
   23.8585  -15.3792    0.0000 C    0  0  0  0  0  0  0  0  0  0  0  0
   25.0103  -16.0442    0.0000 C    0  0  0  0  0  0  0  0  0  0  0  0
   26.1621  -14.0492    0.0000 C    0  0  0  0  0  0  0  0  0  0  0  0
   26.1621  -15.3792    0.0000 C    0  0  0  0  0  0  0  0  0  0  0  0
   22.7461  -10.7924    0.0000 C    0  0  0  0  0  0  0  0  0  0  0  0
   20.6792  -12.4474    0.0000 C    0  0  0  0  0  0  0  0  0  0  0  0
   21.0902  -11.1825    0.0000 C    0  0  0  0  0  0  0  0  0  0  0  0
   21.1582  -14.7007    0.0000 C    0  0  0  0  0  0  0  0  0  0  0  0
   19.8572  -14.9772    0.0000 C    0  0  0  0  0  0  0  0  0  0  0  0
  1  2  1  0  0  0  0
  1  3  1  0  0  0  0
  2  4  1  0  0  0  0
  4  5  1  0  0  0  0
  1  6  1  0  0  0  0
  3  7  1  0  0  0  0
  3  5  2  0  0  0  0
  7  8  2  0  0  0  0
  5  9  1  0  0  0  0
  8 10  1  0  0  0  0
  9 10  2  0  0  0  0
  2 11  1  0  0  0  0
  6 12  2  0  0  0  0
 12 13  1  0  0  0  0
  6 14  2  0  0  0  0
 14 15  1  0  0  0  0
M  END
> <NMREDATA_VERSION>
1.1

> <NMREDATA_LEVEL>
0

> <NMREDATA_SOLVENT>
DCCl3/Et2O

> <NMREDATA_TEMPERATURE>
298

> <NMREDATA_FORMULA>
C14H19Rh

> <NMREDATA_SMILES>
C/C=[Rh](=C\C)/C1C(C)Cc2c1cccc2

> <NMREDATA_ASSIGNMENT>
Rh6, -265.00, 6

> <NMREDATA_1D_103Rh>
-265.00, L=Rh6

$$$$

  ACD/LABS02062414132D

 53 61  0  0  0  0  0  0  0  0  1 V2000
   12.4046  -13.7469    0.0000 C    0  0  0  0  0  0  0  0  0  0  0  0
   13.0374  -12.5722    0.0000 C    0  0  0  0  0  0  0  0  0  0  0  0
   11.0950  -13.9803    0.0000 C    0  0  0  0  0  0  0  0  0  0  0  0
   12.5147  -11.3474    0.0000 C    0  0  0  0  0  0  0  0  0  0  0  0
   10.0965  -13.1024    0.0000 C    0  0  0  0  0  0  0  0  0  0  0  0
   10.1520  -11.7793    0.0000 C    0  0  0  0  0  0  0  0  0  0  0  0
   11.2335  -10.9910    0.0000 C    0  0  0  0  0  0  0  0  0  0  0  0
    8.9346  -11.2323    0.0000 C    0  0  0  0  0  0  0  0  0  0  0  0
    8.8032   -9.9049    0.0000 C    0  0  0  0  0  0  0  0  0  0  0  0
   11.0946   -9.6680    0.0000 C    0  0  0  0  0  0  0  0  0  0  0  0
    9.8815   -9.1285    0.0000 C    0  0  0  0  0  0  0  0  0  0  0  0
   13.0962  -14.8736    0.0000 C    0  0  0  0  0  0  0  0  0  0  0  0
   14.4252  -14.8335    0.0000 C    0  0  0  0  0  0  0  0  0  0  0  0
   14.3668  -12.5318    0.0000 C    0  0  0  0  0  0  0  0  0  0  0  0
   15.0580  -13.6588    0.0000 C    0  0  0  0  0  0  0  0  0  0  0  0
   22.9253  -13.0197    0.0000 C    0  0  0  0  0  0  0  0  0  0  0  0
   22.9646  -11.6860    0.0000 C    0  0  0  0  0  0  0  0  0  0  0  0
   21.7550  -13.6543    0.0000 C    0  0  0  0  0  0  0  0  0  0  0  0
   21.8258  -10.9913    0.0000 C    0  0  0  0  0  0  0  0  0  0  0  0
   20.6241  -12.9551    0.0000 C    0  0  0  0  0  0  0  0  0  0  0  0
   20.6556  -11.6259    0.0000 C    0  0  0  0  0  0  0  0  0  0  0  0
   21.3459  -17.0975    0.0000 C    0  0  0  0  0  0  0  0  0  0  0  0
   22.0449  -15.9662    0.0000 C    0  0  0  0  0  0  0  0  0  0  0  0
   20.0161  -17.0659    0.0000 C    0  0  0  0  0  0  0  0  0  0  0  0
   21.4104  -14.7960    0.0000 C    0  0  0  0  0  0  0  0  0  0  0  0
   19.3815  -15.8957    0.0000 C    0  0  0  0  0  0  0  0  0  0  0  0
   20.0808  -14.7648    0.0000 C    0  0  0  0  0  0  0  0  0  0  0  0
   15.9857  -14.1476    0.0000 C    0  0  0  0  0  0  0  0  0  0  0  0
   17.1481  -13.5176    0.0000 C    0  0  0  0  0  0  0  0  0  0  0  0
   15.9466  -15.4817    0.0000 C    0  0  0  0  0  0  0  0  0  0  0  0
   18.2789  -14.2168    0.0000 C    0  0  0  0  0  0  0  0  0  0  0  0
   17.0779  -16.1807    0.0000 C    0  0  0  0  0  0  0  0  0  0  0  0
   18.2481  -15.5462    0.0000 C    0  0  0  0  0  0  0  0  0  0  0  0
   18.8190  -12.4196    0.0000 Rh   0  0  0  0  0  0  0  0  0  0  0  0
   19.4535  -13.5898    0.0000 P    0  0  0  0  0  0  0  0  0  0  0  0
   19.5139  -11.2812    0.0000 H    0  0  0  0  0  0  0  0  0  0  0  0
   13.2021  -10.2133    0.0000 N    0  0  0  0  0  0  0  0  0  0  0  0
   13.5909   -6.7002    0.0000 C    0  0  0  0  0  0  0  0  0  0  0  0
   13.1701   -7.9575    0.0000 C    0  0  0  0  0  0  0  0  0  0  0  0
   14.8359   -6.2480    0.0000 C    0  0  0  0  0  0  0  0  0  0  0  0
   13.8968   -9.0745    0.0000 C    0  0  0  0  0  0  0  0  0  0  0  0
   15.9701   -6.9348    0.0000 C    0  0  0  0  0  0  0  0  0  0  0  0
   16.1410   -8.2604    0.0000 C    0  0  0  0  0  0  0  0  0  0  0  0
   15.2167   -9.2141    0.0000 C    0  0  0  0  0  0  0  0  0  0  0  0
   17.4321   -8.5800    0.0000 C    0  0  0  0  0  0  0  0  0  0  0  0
   17.7958   -9.8660    0.0000 C    0  0  0  0  0  0  0  0  0  0  0  0
   15.5754  -10.4925    0.0000 C    0  0  0  0  0  0  0  0  0  0  0  0
   16.8710  -10.8199    0.0000 C    0  0  0  0  0  0  0  0  0  0  0  0
   12.7084   -5.7037    0.0000 C    0  0  0  0  0  0  0  0  0  0  0  0
   11.4090   -5.9722    0.0000 C    0  0  0  0  0  0  0  0  0  0  0  0
   11.8704   -8.2262    0.0000 C    0  0  0  0  0  0  0  0  0  0  0  0
   10.9879   -7.2297    0.0000 C    0  0  0  0  0  0  0  0  0  0  0  0
   12.0676   -9.5262    0.0000 H    0  0  0  0  0  0  0  0  0  0  0  0
  1  3  1  0  0  0  0
  2  4  1  0  0  0  0
  3  5  2  0  0  0  0
  4  7  1  0  0  0  0
  5  6  1  0  0  0  0
  6  8  1  0  0  0  0
  6  7  2  0  0  0  0
  8  9  2  0  0  0  0
  7 10  1  0  0  0  0
  9 11  1  0  0  0  0
 10 11  2  0  0  0  0
  1 12  1  0  0  0  0
  1  2  2  0  0  0  0
 12 13  2  0  0  0  0
  2 14  1  0  0  0  0
 13 15  1  0  0  0  0
 14 15  2  0  0  0  0
 16 17  1  0  0  0  0
 16 18  2  0  0  0  0
 17 19  2  0  0  0  0
 18 20  1  0  0  0  0
 19 21  1  0  0  0  0
 20 21  2  0  0  0  0
 22 23  1  0  0  0  0
 22 24  2  0  0  0  0
 23 25  2  0  0  0  0
 24 26  1  0  0  0  0
 25 27  1  0  0  0  0
 26 27  2  0  0  0  0
 28 29  1  0  0  0  0
 28 30  2  0  0  0  0
 29 31  2  0  0  0  0
 30 32  1  0  0  0  0
 31 33  1  0  0  0  0
 32 33  2  0  0  0  0
 34 35  1  0  0  0  0
 31 35  1  0  0  0  0
 27 35  1  0  0  0  0
 20 35  1  0  0  0  0
 34 36  1  0  0  0  0
 34 37  1  0  0  0  0
 38 40  1  0  0  0  0
 39 41  1  0  0  0  0
 40 42  2  0  0  0  0
 41 44  1  0  0  0  0
 42 43  1  0  0  0  0
 43 45  1  0  0  0  0
 43 44  2  0  0  0  0
 45 46  2  0  0  0  0
 44 47  1  0  0  0  0
 46 48  1  0  0  0  0
 47 48  2  0  0  0  0
 38 49  1  0  0  0  0
 38 39  2  0  0  0  0
 49 50  2  0  0  0  0
 39 51  1  0  0  0  0
 50 52  1  0  0  0  0
 51 52  2  0  0  0  0
 37 41  1  0  0  0  0
  4 37  1  0  0  0  0
 37 53  1  0  0  0  0
M  END
> <NMREDATA_VERSION>
1.1

> <NMREDATA_LEVEL>
0

> <NMREDATA_SOLVENT>
THF

> <NMREDATA_TEMPERATURE>
230

> <NMREDATA_FORMULA>
C48H41NPRh

> <NMREDATA_SMILES>
c1ccc(cc1)P(c1ccccc1)(c1ccccc1)[RhH][NH2](C1c2ccccc2C=Cc2c1cccc2)C1c2ccccc2C=Cc2c1cccc2

> <NMREDATA_ASSIGNMENT>
Rh34, -187.00, 34

> <NMREDATA_1D_103Rh>
-187.00, L=Rh34

$$$$

  ACD/LABS02062414142D

 53 61  0  0  0  0  0  0  0  0  1 V2000
   12.4046  -13.7469    0.0000 C    0  0  0  0  0  0  0  0  0  0  0  0
   13.0374  -12.5722    0.0000 C    0  0  0  0  0  0  0  0  0  0  0  0
   11.0950  -13.9803    0.0000 C    0  0  0  0  0  0  0  0  0  0  0  0
   12.5147  -11.3474    0.0000 C    0  0  0  0  0  0  0  0  0  0  0  0
   10.0965  -13.1024    0.0000 C    0  0  0  0  0  0  0  0  0  0  0  0
   10.1520  -11.7793    0.0000 C    0  0  0  0  0  0  0  0  0  0  0  0
   11.2335  -10.9910    0.0000 C    0  0  0  0  0  0  0  0  0  0  0  0
    8.9346  -11.2323    0.0000 C    0  0  0  0  0  0  0  0  0  0  0  0
    8.8032   -9.9049    0.0000 C    0  0  0  0  0  0  0  0  0  0  0  0
   11.0946   -9.6680    0.0000 C    0  0  0  0  0  0  0  0  0  0  0  0
    9.8815   -9.1285    0.0000 C    0  0  0  0  0  0  0  0  0  0  0  0
   13.0962  -14.8736    0.0000 C    0  0  0  0  0  0  0  0  0  0  0  0
   14.4252  -14.8335    0.0000 C    0  0  0  0  0  0  0  0  0  0  0  0
   14.3668  -12.5318    0.0000 C    0  0  0  0  0  0  0  0  0  0  0  0
   15.0580  -13.6588    0.0000 C    0  0  0  0  0  0  0  0  0  0  0  0
   22.9253  -13.0197    0.0000 C    0  0  0  0  0  0  0  0  0  0  0  0
   22.9646  -11.6860    0.0000 C    0  0  0  0  0  0  0  0  0  0  0  0
   21.7550  -13.6543    0.0000 C    0  0  0  0  0  0  0  0  0  0  0  0
   21.8258  -10.9913    0.0000 C    0  0  0  0  0  0  0  0  0  0  0  0
   20.6241  -12.9551    0.0000 C    0  0  0  0  0  0  0  0  0  0  0  0
   20.6556  -11.6259    0.0000 C    0  0  0  0  0  0  0  0  0  0  0  0
   21.3459  -17.0975    0.0000 C    0  0  0  0  0  0  0  0  0  0  0  0
   22.0449  -15.9662    0.0000 C    0  0  0  0  0  0  0  0  0  0  0  0
   20.0161  -17.0659    0.0000 C    0  0  0  0  0  0  0  0  0  0  0  0
   21.4104  -14.7960    0.0000 C    0  0  0  0  0  0  0  0  0  0  0  0
   19.3815  -15.8957    0.0000 C    0  0  0  0  0  0  0  0  0  0  0  0
   20.0808  -14.7648    0.0000 C    0  0  0  0  0  0  0  0  0  0  0  0
   15.9857  -14.1476    0.0000 C    0  0  0  0  0  0  0  0  0  0  0  0
   17.1481  -13.5176    0.0000 C    0  0  0  0  0  0  0  0  0  0  0  0
   15.9466  -15.4817    0.0000 C    0  0  0  0  0  0  0  0  0  0  0  0
   18.2789  -14.2168    0.0000 C    0  0  0  0  0  0  0  0  0  0  0  0
   17.0779  -16.1807    0.0000 C    0  0  0  0  0  0  0  0  0  0  0  0
   18.2481  -15.5462    0.0000 C    0  0  0  0  0  0  0  0  0  0  0  0
   18.8190  -12.4196    0.0000 Rh   0  0  0  0  0  0  0  0  0  0  0  0
   19.4535  -13.5898    0.0000 P    0  0  0  0  0  0  0  0  0  0  0  0
   19.5139  -11.2812    0.0000 H    0  0  0  0  0  0  0  0  0  0  0  0
   13.2021  -10.2133    0.0000 N    0  0  0  0  0  0  0  0  0  0  0  0
   13.5909   -6.7002    0.0000 C    0  0  0  0  0  0  0  0  0  0  0  0
   13.1701   -7.9575    0.0000 C    0  0  0  0  0  0  0  0  0  0  0  0
   14.8359   -6.2480    0.0000 C    0  0  0  0  0  0  0  0  0  0  0  0
   13.8968   -9.0745    0.0000 C    0  0  0  0  0  0  0  0  0  0  0  0
   15.9701   -6.9348    0.0000 C    0  0  0  0  0  0  0  0  0  0  0  0
   16.1410   -8.2604    0.0000 C    0  0  0  0  0  0  0  0  0  0  0  0
   15.2167   -9.2141    0.0000 C    0  0  0  0  0  0  0  0  0  0  0  0
   17.4321   -8.5800    0.0000 C    0  0  0  0  0  0  0  0  0  0  0  0
   17.7958   -9.8660    0.0000 C    0  0  0  0  0  0  0  0  0  0  0  0
   15.5754  -10.4925    0.0000 C    0  0  0  0  0  0  0  0  0  0  0  0
   16.8710  -10.8199    0.0000 C    0  0  0  0  0  0  0  0  0  0  0  0
   12.7084   -5.7037    0.0000 C    0  0  0  0  0  0  0  0  0  0  0  0
   11.4090   -5.9722    0.0000 C    0  0  0  0  0  0  0  0  0  0  0  0
   11.8704   -8.2262    0.0000 C    0  0  0  0  0  0  0  0  0  0  0  0
   10.9879   -7.2297    0.0000 C    0  0  0  0  0  0  0  0  0  0  0  0
   12.0676   -9.5262    0.0000 H    0  0  0  0  0  0  0  0  0  0  0  0
  1  3  1  0  0  0  0
  2  4  1  0  0  0  0
  3  5  2  0  0  0  0
  4  7  1  0  0  0  0
  5  6  1  0  0  0  0
  6  8  1  0  0  0  0
  6  7  2  0  0  0  0
  8  9  2  0  0  0  0
  7 10  1  0  0  0  0
  9 11  1  0  0  0  0
 10 11  2  0  0  0  0
  1 12  1  0  0  0  0
  1  2  2  0  0  0  0
 12 13  2  0  0  0  0
  2 14  1  0  0  0  0
 13 15  1  0  0  0  0
 14 15  2  0  0  0  0
 16 17  1  0  0  0  0
 16 18  2  0  0  0  0
 17 19  2  0  0  0  0
 18 20  1  0  0  0  0
 19 21  1  0  0  0  0
 20 21  2  0  0  0  0
 22 23  1  0  0  0  0
 22 24  2  0  0  0  0
 23 25  2  0  0  0  0
 24 26  1  0  0  0  0
 25 27  1  0  0  0  0
 26 27  2  0  0  0  0
 28 29  1  0  0  0  0
 28 30  2  0  0  0  0
 29 31  2  0  0  0  0
 30 32  1  0  0  0  0
 31 33  1  0  0  0  0
 32 33  2  0  0  0  0
 34 35  1  0  0  0  0
 31 35  1  0  0  0  0
 27 35  1  0  0  0  0
 20 35  1  0  0  0  0
 34 36  1  0  0  0  0
 34 37  1  0  0  0  0
 38 40  1  0  0  0  0
 39 41  1  0  0  0  0
 40 42  2  0  0  0  0
 41 44  1  0  0  0  0
 42 43  1  0  0  0  0
 43 45  1  0  0  0  0
 43 44  2  0  0  0  0
 45 46  2  0  0  0  0
 44 47  1  0  0  0  0
 46 48  1  0  0  0  0
 47 48  2  0  0  0  0
 38 49  1  0  0  0  0
 38 39  2  0  0  0  0
 49 50  2  0  0  0  0
 39 51  1  0  0  0  0
 50 52  1  0  0  0  0
 51 52  2  0  0  0  0
 37 41  1  0  0  0  0
  4 37  1  0  0  0  0
 37 53  1  0  0  0  0
M  END
> <NMREDATA_VERSION>
1.1

> <NMREDATA_LEVEL>
0

> <NMREDATA_SOLVENT>
THF

> <NMREDATA_TEMPERATURE>
298

> <NMREDATA_FORMULA>
C48H41NPRh

> <NMREDATA_SMILES>
c1ccc(cc1)P(c1ccccc1)(c1ccccc1)[RhH][NH2](C1c2ccccc2C=Cc2c1cccc2)C1c2ccccc2C=Cc2c1cccc2

> <NMREDATA_ASSIGNMENT>
Rh34, -38.00, 34

> <NMREDATA_1D_103Rh>
-38.00, L=Rh34

$$$$

  ACD/LABS02062414182D

 58 66  0  0  0  0  0  0  0  0  2 V2000
   22.2235  -16.9775    0.0000 C    0  0  0  0  0  0  0  0  0  0  0  0
   22.2235  -18.3075    0.0000 C    0  0  0  0  0  0  0  0  0  0  0  0
   21.0716  -16.3125    0.0000 C    0  0  0  0  0  0  0  0  0  0  0  0
   21.0716  -18.9725    0.0000 C    0  0  0  0  0  0  0  0  0  0  0  0
   19.9198  -16.9775    0.0000 C    0  0  0  0  0  0  0  0  0  0  0  0
   19.9198  -18.3075    0.0000 C    0  0  0  0  0  0  0  0  0  0  0  0
   25.1559  -10.2154    0.0000 C    0  0  0  0  0  0  0  0  0  0  0  0
   25.1559  -11.5454    0.0000 C    0  0  0  0  0  0  0  0  0  0  0  0
   24.0040   -9.5504    0.0000 C    0  0  0  0  0  0  0  0  0  0  0  0
   24.0040  -12.2104    0.0000 C    0  0  0  0  0  0  0  0  0  0  0  0
   22.8523  -10.2154    0.0000 C    0  0  0  0  0  0  0  0  0  0  0  0
   22.8523  -11.5454    0.0000 C    0  0  0  0  0  0  0  0  0  0  0  0
   20.3808   -6.5619    0.0000 C    0  0  0  0  0  0  0  0  0  0  0  0
   20.3808   -7.8919    0.0000 C    0  0  0  0  0  0  0  0  0  0  0  0
   19.2289   -5.8969    0.0000 C    0  0  0  0  0  0  0  0  0  0  0  0
   19.2289   -8.5569    0.0000 C    0  0  0  0  0  0  0  0  0  0  0  0
   18.0771   -6.5619    0.0000 C    0  0  0  0  0  0  0  0  0  0  0  0
   18.0771   -7.8919    0.0000 C    0  0  0  0  0  0  0  0  0  0  0  0
   12.4168  -11.8178    0.0000 C    0  0  0  0  0  0  0  0  0  0  0  0
   12.4168  -13.1478    0.0000 C    0  0  0  0  0  0  0  0  0  0  0  0
   11.2649  -11.1528    0.0000 C    0  0  0  0  0  0  0  0  0  0  0  0
   11.2649  -13.8128    0.0000 C    0  0  0  0  0  0  0  0  0  0  0  0
   10.1131  -11.8178    0.0000 C    0  0  0  0  0  0  0  0  0  0  0  0
   10.1131  -13.1478    0.0000 C    0  0  0  0  0  0  0  0  0  0  0  0
   13.5909   -6.7002    0.0000 C    0  0  0  0  0  0  0  0  0  0  0  0
   13.1701   -7.9575    0.0000 C    0  0  0  0  0  0  0  0  0  0  0  0
   14.8359   -6.2480    0.0000 C    0  0  0  0  0  0  0  0  0  0  0  0
   13.8968   -9.0745    0.0000 C    0  0  0  0  0  0  0  0  0  0  0  0
   15.9701   -6.9348    0.0000 C    0  0  0  0  0  0  0  0  0  0  0  0
   16.1410   -8.2604    0.0000 C    0  0  0  0  0  0  0  0  0  0  0  0
   15.2167   -9.2141    0.0000 C    0  0  0  0  0  0  0  0  0  0  0  0
   17.4321   -8.5800    0.0000 C    0  0  0  0  0  0  0  0  0  0  0  0
   17.7958   -9.8660    0.0000 C    0  0  0  0  0  0  0  0  0  0  0  0
   15.5754  -10.4925    0.0000 C    0  0  0  0  0  0  0  0  0  0  0  0
   16.8710  -10.8199    0.0000 C    0  0  0  0  0  0  0  0  0  0  0  0
   12.7084   -5.7037    0.0000 C    0  0  0  0  0  0  0  0  0  0  0  0
   11.4090   -5.9722    0.0000 C    0  0  0  0  0  0  0  0  0  0  0  0
   11.8704   -8.2262    0.0000 C    0  0  0  0  0  0  0  0  0  0  0  0
   10.9879   -7.2297    0.0000 C    0  0  0  0  0  0  0  0  0  0  0  0
   18.6841  -12.8994    0.0000 Rh   0  3  0  0  0  0  0  0  0  0  0  0
   16.6170  -11.9380    0.0000 P    0  0  0  0  0  0  0  0  0  0  0  0
   20.9115  -14.0692    0.0000 P    0  0  0  0  0  0  0  0  0  0  0  0
   27.8038  -17.7049    0.0000 C    0  0  0  0  0  0  0  0  0  0  0  0
   28.4366  -16.5301    0.0000 C    0  0  0  0  0  0  0  0  0  0  0  0
   26.4941  -17.9382    0.0000 C    0  0  0  0  0  0  0  0  0  0  0  0
   27.9139  -15.3053    0.0000 C    0  0  0  0  0  0  0  0  0  0  0  0
   25.4956  -17.0604    0.0000 C    0  0  0  0  0  0  0  0  0  0  0  0
   25.5512  -15.7373    0.0000 C    0  0  0  0  0  0  0  0  0  0  0  0
   26.6326  -14.9490    0.0000 C    0  0  0  0  0  0  0  0  0  0  0  0
   24.3337  -15.1902    0.0000 C    0  0  0  0  0  0  0  0  0  0  0  0
   24.2023  -13.8628    0.0000 C    0  0  0  0  0  0  0  0  0  0  0  0
   26.4937  -13.6259    0.0000 C    0  0  0  0  0  0  0  0  0  0  0  0
   28.4954  -18.8316    0.0000 C    0  0  0  0  0  0  0  0  0  0  0  0
   29.8244  -18.7915    0.0000 C    0  0  0  0  0  0  0  0  0  0  0  0
   29.7660  -16.4898    0.0000 C    0  0  0  0  0  0  0  0  0  0  0  0
   25.0457  -12.9795    0.0000 C    0  0  0  0  0  0  0  0  0  0  0  0
   31.0066  -17.5784    0.0000 C    0  0  0  0  0  0  0  0  0  0  0  0
   16.7131  -14.5018    0.0000 Cl   0  5  0  0  0  0  0  0  0  0  0  0
  1  2  1  0  0  0  0
  1  3  2  0  0  0  0
  2  4  2  0  0  0  0
  3  5  1  0  0  0  0
  4  6  1  0  0  0  0
  5  6  2  0  0  0  0
  7  8  1  0  0  0  0
  7  9  2  0  0  0  0
  8 10  2  0  0  0  0
  9 11  1  0  0  0  0
 10 12  1  0  0  0  0
 11 12  2  0  0  0  0
 13 14  1  0  0  0  0
 13 15  2  0  0  0  0
 14 16  2  0  0  0  0
 15 17  1  0  0  0  0
 16 18  1  0  0  0  0
 17 18  2  0  0  0  0
 19 20  1  0  0  0  0
 19 21  2  0  0  0  0
 20 22  2  0  0  0  0
 21 23  1  0  0  0  0
 22 24  1  0  0  0  0
 23 24  2  0  0  0  0
 25 27  1  0  0  0  0
 26 28  1  0  0  0  0
 27 29  2  0  0  0  0
 28 31  1  0  0  0  0
 29 30  1  0  0  0  0
 30 32  1  0  0  0  0
 30 31  2  0  0  0  0
 32 33  2  0  0  0  0
 31 34  1  0  0  0  0
 33 35  1  0  0  0  0
 34 35  2  0  0  0  0
 25 36  1  0  0  0  0
 25 26  2  0  0  0  0
 36 37  2  0  0  0  0
 26 38  1  0  0  0  0
 37 39  1  0  0  0  0
 38 39  2  0  0  0  0
 40 41  1  0  0  0  0
 28 41  1  0  0  0  0
 40 42  1  0  0  0  0
 43 45  1  0  0  0  0
 44 46  1  0  0  0  0
 45 47  2  0  0  0  0
 46 49  1  0  0  0  0
 47 48  1  0  0  0  0
 48 50  1  0  0  0  0
 48 49  2  0  0  0  0
 50 51  2  0  0  0  0
 49 52  1  0  0  0  0
 43 53  1  0  0  0  0
 43 44  2  0  0  0  0
 53 54  2  0  0  0  0
 44 55  1  0  0  0  0
 51 56  1  0  0  0  0
 56 52  2  0  0  0  0
 55 57  2  0  0  0  0
 57 54  1  0  0  0  0
 42 46  1  0  0  0  0
 19 41  1  0  0  0  0
 16 41  1  0  0  0  0
 12 42  1  0  0  0  0
  3 42  1  0  0  0  0
M  END
> <NMREDATA_VERSION>
1.1

> <NMREDATA_LEVEL>
0

> <NMREDATA_SOLVENT>
CD2Cl2

> <NMREDATA_TEMPERATURE>
248

> <NMREDATA_FORMULA>
C54H45ClP2Rh

> <NMREDATA_SMILES>
c1ccc(cc1)P(C1c2ccccc2C=Cc2c1cccc2)(c1ccccc1)[Rh]P(C1c2ccccc2C=Cc2c1cccc2)(c1ccccc1)c1ccccc1.Cl

> <NMREDATA_ASSIGNMENT>
Rh40, 210.00, 40

> <NMREDATA_1D_103Rh>
210.00, L=Rh40

$$$$

  ACD/LABS02062414192D

 58 66  0  0  0  0  0  0  0  0  2 V2000
   16.7131  -14.5018    0.0000 Cl   0  5  0  0  0  0  0  0  0  0  0  0
   20.9387  -10.7668    0.0000 C    0  0  0  0  0  0  0  0  0  0  0  0
   19.9637  -11.6714    0.0000 C    0  0  0  0  0  0  0  0  0  0  0  0
   20.6427   -9.4701    0.0000 C    0  0  0  0  0  0  0  0  0  0  0  0
   18.6928  -11.2794    0.0000 C    0  0  0  0  0  0  0  0  0  0  0  0
   19.3718   -9.0781    0.0000 C    0  0  0  0  0  0  0  0  0  0  0  0
   18.3969   -9.9827    0.0000 C    0  0  0  0  0  0  0  0  0  0  0  0
   24.5426   -5.8516    0.0000 C    0  0  0  0  0  0  0  0  0  0  0  0
   24.8385   -7.1482    0.0000 C    0  0  0  0  0  0  0  0  0  0  0  0
   23.2717   -5.4596    0.0000 C    0  0  0  0  0  0  0  0  0  0  0  0
   23.8636   -8.0529    0.0000 C    0  0  0  0  0  0  0  0  0  0  0  0
   22.2967   -6.3642    0.0000 C    0  0  0  0  0  0  0  0  0  0  0  0
   22.5927   -7.6608    0.0000 C    0  0  0  0  0  0  0  0  0  0  0  0
   21.6177   -8.5655    0.0000 P    0  0  0  0  0  0  0  0  0  0  0  0
   20.5340   -5.2006    0.0000 C    0  0  0  0  0  0  0  0  0  0  0  0
   21.1990   -6.3524    0.0000 C    0  0  0  0  0  0  0  0  0  0  0  0
   19.2188   -5.0024    0.0000 C    0  0  0  0  0  0  0  0  0  0  0  0
   20.7131   -7.5905    0.0000 C    0  0  0  0  0  0  0  0  0  0  0  0
   18.2439   -5.9070    0.0000 C    0  0  0  0  0  0  0  0  0  0  0  0
   18.3433   -7.2333    0.0000 C    0  0  0  0  0  0  0  0  0  0  0  0
   19.4422   -7.9825    0.0000 C    0  0  0  0  0  0  0  0  0  0  0  0
   17.1450   -7.8104    0.0000 C    0  0  0  0  0  0  0  0  0  0  0  0
   17.0456   -9.1367    0.0000 C    0  0  0  0  0  0  0  0  0  0  0  0
   19.3428   -9.3088    0.0000 C    0  0  0  0  0  0  0  0  0  0  0  0
   21.1990   -4.0488    0.0000 C    0  0  0  0  0  0  0  0  0  0  0  0
   22.5290   -4.0488    0.0000 C    0  0  0  0  0  0  0  0  0  0  0  0
   22.5290   -6.3524    0.0000 C    0  0  0  0  0  0  0  0  0  0  0  0
   18.1445   -9.8859    0.0000 C    0  0  0  0  0  0  0  0  0  0  0  0
   23.1940   -5.2006    0.0000 C    0  0  0  0  0  0  0  0  0  0  0  0
   27.3169   -9.6275    0.0000 C    0  0  0  0  0  0  0  0  0  0  0  0
   26.0203   -9.9235    0.0000 C    0  0  0  0  0  0  0  0  0  0  0  0
   27.7090   -8.3566    0.0000 C    0  0  0  0  0  0  0  0  0  0  0  0
   25.1156   -8.9485    0.0000 C    0  0  0  0  0  0  0  0  0  0  0  0
   26.8043   -7.3817    0.0000 C    0  0  0  0  0  0  0  0  0  0  0  0
   25.5077   -7.6776    0.0000 C    0  0  0  0  0  0  0  0  0  0  0  0
   23.5230   -7.9478    0.0000 C    0  0  0  0  0  0  0  0  0  0  0  0
   22.2521   -7.5558    0.0000 C    0  0  0  0  0  0  0  0  0  0  0  0
   24.4980   -7.0432    0.0000 C    0  0  0  0  0  0  0  0  0  0  0  0
   21.9562   -6.2591    0.0000 C    0  0  0  0  0  0  0  0  0  0  0  0
   24.2020   -5.7465    0.0000 C    0  0  0  0  0  0  0  0  0  0  0  0
   22.9311   -5.3545    0.0000 C    0  0  0  0  0  0  0  0  0  0  0  0
   23.0751  -12.7004    0.0000 C    0  0  0  0  0  0  0  0  0  0  0  0
   23.0751  -11.3704    0.0000 C    0  0  0  0  0  0  0  0  0  0  0  0
   24.1149  -13.5296    0.0000 C    0  0  0  0  0  0  0  0  0  0  0  0
   24.1149  -10.5411    0.0000 C    0  0  0  0  0  0  0  0  0  0  0  0
   25.4116  -13.2337    0.0000 C    0  0  0  0  0  0  0  0  0  0  0  0
   25.9887  -12.0354    0.0000 C    0  0  0  0  0  0  0  0  0  0  0  0
   25.4116  -10.8371    0.0000 C    0  0  0  0  0  0  0  0  0  0  0  0
   27.3149  -12.1348    0.0000 C    0  0  0  0  0  0  0  0  0  0  0  0
   28.0642  -11.0359    0.0000 C    0  0  0  0  0  0  0  0  0  0  0  0
   26.1608   -9.7382    0.0000 C    0  0  0  0  0  0  0  0  0  0  0  0
   27.4871   -9.8376    0.0000 C    0  0  0  0  0  0  0  0  0  0  0  0
   21.9233  -13.3654    0.0000 C    0  0  0  0  0  0  0  0  0  0  0  0
   20.7715  -12.7004    0.0000 C    0  0  0  0  0  0  0  0  0  0  0  0
   21.9233  -10.7054    0.0000 C    0  0  0  0  0  0  0  0  0  0  0  0
   20.7715  -11.3704    0.0000 C    0  0  0  0  0  0  0  0  0  0  0  0
   22.5223   -9.5404    0.0000 Rh   0  3  0  0  0  0  0  0  0  0  0  0
   23.8190   -9.2445    0.0000 P    0  0  0  0  0  0  0  0  0  0  0  0
  2  3  1  0  0  0  0
  2  4  2  0  0  0  0
  3  5  2  0  0  0  0
  4  6  1  0  0  0  0
  5  7  1  0  0  0  0
  6  7  2  0  0  0  0
  8  9  1  0  0  0  0
  8 10  2  0  0  0  0
  9 11  2  0  0  0  0
 10 12  1  0  0  0  0
 11 13  1  0  0  0  0
 12 13  2  0  0  0  0
 15 17  1  0  0  0  0
 16 18  1  0  0  0  0
 17 19  2  0  0  0  0
 18 21  1  0  0  0  0
 19 20  1  0  0  0  0
 20 22  1  0  0  0  0
 20 21  2  0  0  0  0
 22 23  2  0  0  0  0
 21 24  1  0  0  0  0
 15 25  1  0  0  0  0
 15 16  2  0  0  0  0
 25 26  2  0  0  0  0
 16 27  1  0  0  0  0
 23 28  1  0  0  0  0
 28 24  2  0  0  0  0
 27 29  2  0  0  0  0
 29 26  1  0  0  0  0
 14 18  1  0  0  0  0
 13 14  1  0  0  0  0
  4 14  1  0  0  0  0
 30 31  1  0  0  0  0
 30 32  2  0  0  0  0
 31 33  2  0  0  0  0
 32 34  1  0  0  0  0
 33 35  1  0  0  0  0
 34 35  2  0  0  0  0
 36 37  1  0  0  0  0
 36 38  2  0  0  0  0
 37 39  2  0  0  0  0
 38 40  1  0  0  0  0
 39 41  1  0  0  0  0
 40 41  2  0  0  0  0
 42 44  1  0  0  0  0
 43 45  1  0  0  0  0
 44 46  2  0  0  0  0
 45 48  1  0  0  0  0
 46 47  1  0  0  0  0
 47 49  1  0  0  0  0
 47 48  2  0  0  0  0
 49 50  2  0  0  0  0
 48 51  1  0  0  0  0
 50 52  1  0  0  0  0
 51 52  2  0  0  0  0
 42 53  1  0  0  0  0
 42 43  2  0  0  0  0
 53 54  2  0  0  0  0
 43 55  1  0  0  0  0
 54 56  1  0  0  0  0
 55 56  2  0  0  0  0
 57 58  1  0  0  0  0
 45 58  1  0  0  0  0
 36 58  1  0  0  0  0
 33 58  1  0  0  0  0
 14 57  1  0  0  0  0
M  END
> <NMREDATA_VERSION>
1.1

> <NMREDATA_LEVEL>
0

> <NMREDATA_SOLVENT>
CD2Cl2

> <NMREDATA_TEMPERATURE>
248

> <NMREDATA_FORMULA>
C54H45ClP2Rh

> <NMREDATA_SMILES>
c1ccc(cc1)P(C1c2ccccc2C=Cc2c1cccc2)(c1ccccc1)[Rh]P(C1c2ccccc2C=Cc2c1cccc2)(c1ccccc1)c1ccccc1.Cl

> <NMREDATA_ASSIGNMENT>
Rh57, -253.00, 57

> <NMREDATA_1D_103Rh>
-253.00, L=Rh57

$$$$

  ACD/LABS02072409422D

 61 69  0  0  0  0  0  0  0  0  2 V2000
   16.7131  -14.5018    0.0000 Cl   0  5  0  0  0  0  0  0  0  0  0  0
   31.5175   -9.7346    0.0000 C    0  0  0  0  0  0  0  0  0  0  0  0
   31.5175  -11.0646    0.0000 C    0  0  0  0  0  0  0  0  0  0  0  0
   30.3656   -9.0696    0.0000 C    0  0  0  0  0  0  0  0  0  0  0  0
   30.3656  -11.7296    0.0000 C    0  0  0  0  0  0  0  0  0  0  0  0
   29.2138   -9.7346    0.0000 C    0  0  0  0  0  0  0  0  0  0  0  0
   29.2138  -11.0646    0.0000 C    0  0  0  0  0  0  0  0  0  0  0  0
   31.5976   -6.1933    0.0000 C    0  0  0  0  0  0  0  0  0  0  0  0
   31.5976   -7.5233    0.0000 C    0  0  0  0  0  0  0  0  0  0  0  0
   30.4457   -5.5283    0.0000 C    0  0  0  0  0  0  0  0  0  0  0  0
   30.4457   -8.1883    0.0000 C    0  0  0  0  0  0  0  0  0  0  0  0
   29.2939   -6.1933    0.0000 C    0  0  0  0  0  0  0  0  0  0  0  0
   29.2939   -7.5233    0.0000 C    0  0  0  0  0  0  0  0  0  0  0  0
   26.1494   -3.2289    0.0000 C    0  0  0  0  0  0  0  0  0  0  0  0
   26.1494   -4.5589    0.0000 C    0  0  0  0  0  0  0  0  0  0  0  0
   24.9975   -2.5639    0.0000 C    0  0  0  0  0  0  0  0  0  0  0  0
   24.9975   -5.2239    0.0000 C    0  0  0  0  0  0  0  0  0  0  0  0
   23.8458   -3.2289    0.0000 C    0  0  0  0  0  0  0  0  0  0  0  0
   23.8458   -4.5589    0.0000 C    0  0  0  0  0  0  0  0  0  0  0  0
   18.5540  -10.6801    0.0000 C    0  0  0  0  0  0  0  0  0  0  0  0
   18.5540  -12.0101    0.0000 C    0  0  0  0  0  0  0  0  0  0  0  0
   17.4021  -10.0151    0.0000 C    0  0  0  0  0  0  0  0  0  0  0  0
   17.4021  -12.6751    0.0000 C    0  0  0  0  0  0  0  0  0  0  0  0
   16.2503  -10.6801    0.0000 C    0  0  0  0  0  0  0  0  0  0  0  0
   16.2503  -12.0101    0.0000 C    0  0  0  0  0  0  0  0  0  0  0  0
   21.6177   -8.5655    0.0000 P    0  0  0  0  0  0  0  0  0  0  0  0
   20.5340   -5.2006    0.0000 C    0  0  0  0  0  0  0  0  0  0  0  0
   21.1990   -6.3524    0.0000 C    0  0  0  0  0  0  0  0  0  0  0  0
   19.2188   -5.0024    0.0000 C    0  0  0  0  0  0  0  0  0  0  0  0
   20.7131   -7.5905    0.0000 C    0  0  0  0  0  0  0  0  0  0  0  0
   18.2439   -5.9070    0.0000 C    0  0  0  0  0  0  0  0  0  0  0  0
   18.3433   -7.2333    0.0000 C    0  0  0  0  0  0  0  0  0  0  0  0
   19.4422   -7.9825    0.0000 C    0  0  0  0  0  0  0  0  0  0  0  0
   17.1450   -7.8104    0.0000 C    0  0  0  0  0  0  0  0  0  0  0  0
   17.0456   -9.1367    0.0000 C    0  0  0  0  0  0  0  0  0  0  0  0
   19.3428   -9.3088    0.0000 C    0  0  0  0  0  0  0  0  0  0  0  0
   18.1445   -9.8859    0.0000 C    0  0  0  0  0  0  0  0  0  0  0  0
   23.0751  -12.7004    0.0000 C    0  0  0  0  0  0  0  0  0  0  0  0
   23.0751  -11.3704    0.0000 C    0  0  0  0  0  0  0  0  0  0  0  0
   24.1149  -13.5296    0.0000 C    0  0  0  0  0  0  0  0  0  0  0  0
   24.1149  -10.5411    0.0000 C    0  0  0  0  0  0  0  0  0  0  0  0
   25.4116  -13.2337    0.0000 C    0  0  0  0  0  0  0  0  0  0  0  0
   25.9887  -12.0354    0.0000 C    0  0  0  0  0  0  0  0  0  0  0  0
   25.4116  -10.8371    0.0000 C    0  0  0  0  0  0  0  0  0  0  0  0
   27.3149  -12.1348    0.0000 C    0  0  0  0  0  0  0  0  0  0  0  0
   28.0642  -11.0359    0.0000 C    0  0  0  0  0  0  0  0  0  0  0  0
   26.1608   -9.7382    0.0000 C    0  0  0  0  0  0  0  0  0  0  0  0
   27.4871   -9.8376    0.0000 C    0  0  0  0  0  0  0  0  0  0  0  0
   21.9233  -13.3654    0.0000 C    0  0  0  0  0  0  0  0  0  0  0  0
   20.7715  -12.7004    0.0000 C    0  0  0  0  0  0  0  0  0  0  0  0
   21.9233  -10.7054    0.0000 C    0  0  0  0  0  0  0  0  0  0  0  0
   20.7715  -11.3704    0.0000 C    0  0  0  0  0  0  0  0  0  0  0  0
   22.5223   -9.5404    0.0000 Rh   0  0  0  0  0  0  0  0  0  0  0  0
   23.8190   -9.2445    0.0000 P    0  0  0  0  0  0  0  0  0  0  0  0
   21.1990   -4.0489    0.0000 C    0  0  0  0  0  0  0  0  0  0  0  0
   22.5290   -4.0490    0.0000 C    0  0  0  0  0  0  0  0  0  0  0  0
   22.5289   -6.3525    0.0000 C    0  0  0  0  0  0  0  0  0  0  0  0
   23.1939   -5.2008    0.0000 C    0  0  0  0  0  0  0  0  0  0  0  0
   27.5294   -4.6790    0.0000 N    0  3  0  0  0  0  0  0  0  0  0  0
   29.6446   -4.3586    0.0000 C    0  0  0  0  0  0  0  0  0  0  0  0
   31.7758   -4.5348    0.0000 C    0  0  0  0  0  0  0  0  0  0  0  0
  2  3  1  0  0  0  0
  2  4  2  0  0  0  0
  3  5  2  0  0  0  0
  4  6  1  0  0  0  0
  5  7  1  0  0  0  0
  6  7  2  0  0  0  0
  8  9  1  0  0  0  0
  8 10  2  0  0  0  0
  9 11  2  0  0  0  0
 10 12  1  0  0  0  0
 11 13  1  0  0  0  0
 12 13  2  0  0  0  0
 14 15  1  0  0  0  0
 14 16  2  0  0  0  0
 15 17  2  0  0  0  0
 16 18  1  0  0  0  0
 17 19  1  0  0  0  0
 18 19  2  0  0  0  0
 20 21  1  0  0  0  0
 20 22  2  0  0  0  0
 21 23  2  0  0  0  0
 22 24  1  0  0  0  0
 23 25  1  0  0  0  0
 24 25  2  0  0  0  0
 27 29  1  0  0  0  0
 28 30  1  0  0  0  0
 29 31  2  0  0  0  0
 30 33  1  0  0  0  0
 31 32  1  0  0  0  0
 32 34  1  0  0  0  0
 32 33  2  0  0  0  0
 34 35  2  0  0  0  0
 33 36  1  0  0  0  0
 35 37  1  0  0  0  0
 37 36  2  0  0  0  0
 26 30  1  0  0  0  0
 38 40  1  0  0  0  0
 39 41  1  0  0  0  0
 40 42  2  0  0  0  0
 41 44  1  0  0  0  0
 42 43  1  0  0  0  0
 43 45  1  0  0  0  0
 43 44  2  0  0  0  0
 45 46  2  0  0  0  0
 44 47  1  0  0  0  0
 46 48  1  0  0  0  0
 47 48  2  0  0  0  0
 38 49  1  0  0  0  0
 38 39  2  0  0  0  0
 49 50  2  0  0  0  0
 39 51  1  0  0  0  0
 50 52  1  0  0  0  0
 51 52  2  0  0  0  0
 53 54  1  0  0  0  0
 41 54  1  0  0  0  0
 26 53  1  0  0  0  0
 27 55  1  0  0  0  0
 27 28  2  0  0  0  0
 55 56  2  0  0  0  0
 28 57  1  0  0  0  0
 56 58  1  0  0  0  0
 57 58  2  0  0  0  0
 20 26  1  0  0  0  0
 19 26  1  0  0  0  0
 12 54  1  0  0  0  0
  6 54  1  0  0  0  0
 53 59  1  0  0  0  0
 59 60  3  0  0  0  0
 60 61  1  0  0  0  0
M  END
> <NMREDATA_VERSION>
1.1

> <NMREDATA_LEVEL>
0

> <NMREDATA_SOLVENT>
CD2Cl2

> <NMREDATA_TEMPERATURE>
213

> <NMREDATA_FORMULA>
C56H49ClNP2Rh

> <NMREDATA_SMILES>
CC#N[Rh](P(C1c2ccccc2C=Cc2c1cccc2)(c1ccccc1)c1ccccc1)P(C1c2ccccc2C=Cc2c1cccc2)(c1ccccc1)c1ccccc1.Cl

> <NMREDATA_ASSIGNMENT>
Rh53, 381.00, 53

> <NMREDATA_1D_103Rh>
381.00, L=Rh53

$$$$

  ACD/LABS02072409452D

 52 60  0  0  0  0  0  0  0  0  1 V2000
   28.5691   -3.1968    0.0000 C    0  0  0  0  0  0  0  0  0  0  0  0
   28.5691   -4.5268    0.0000 C    0  0  0  0  0  0  0  0  0  0  0  0
   27.4172   -2.5318    0.0000 C    0  0  0  0  0  0  0  0  0  0  0  0
   27.4172   -5.1918    0.0000 C    0  0  0  0  0  0  0  0  0  0  0  0
   26.2654   -3.1968    0.0000 C    0  0  0  0  0  0  0  0  0  0  0  0
   26.2654   -4.5268    0.0000 C    0  0  0  0  0  0  0  0  0  0  0  0
   25.8469   -6.3616    0.0000 Rh   0  0  0  0  0  0  0  0  0  0  0  0
   23.4272   -7.6916    0.0000 N    0  0  0  0  0  0  0  0  0  0  0  0
   20.5340   -5.2006    0.0000 C    0  0  0  0  0  0  0  0  0  0  0  0
   21.1990   -6.3524    0.0000 C    0  0  0  0  0  0  0  0  0  0  0  0
   19.2188   -5.0024    0.0000 C    0  0  0  0  0  0  0  0  0  0  0  0
   20.7131   -7.5905    0.0000 C    0  0  0  0  0  0  0  0  0  0  0  0
   18.2439   -5.9070    0.0000 C    0  0  0  0  0  0  0  0  0  0  0  0
   18.3433   -7.2333    0.0000 C    0  0  0  0  0  0  0  0  0  0  0  0
   19.4422   -7.9825    0.0000 C    0  0  0  0  0  0  0  0  0  0  0  0
   17.1450   -7.8104    0.0000 C    0  0  0  0  0  0  0  0  0  0  0  0
   17.0456   -9.1367    0.0000 C    0  0  0  0  0  0  0  0  0  0  0  0
   19.3428   -9.3088    0.0000 C    0  0  0  0  0  0  0  0  0  0  0  0
   18.1445   -9.8859    0.0000 C    0  0  0  0  0  0  0  0  0  0  0  0
   21.1990   -4.0489    0.0000 C    0  0  0  0  0  0  0  0  0  0  0  0
   22.5290   -4.0490    0.0000 C    0  0  0  0  0  0  0  0  0  0  0  0
   22.5289   -6.3525    0.0000 C    0  0  0  0  0  0  0  0  0  0  0  0
   23.1939   -5.2008    0.0000 C    0  0  0  0  0  0  0  0  0  0  0  0
   25.9911   -8.2204    0.0000 N    0  0  0  0  0  0  0  0  0  0  0  0
   23.0751  -12.7004    0.0000 C    0  0  0  0  0  0  0  0  0  0  0  0
   23.0751  -11.3704    0.0000 C    0  0  0  0  0  0  0  0  0  0  0  0
   24.1149  -13.5296    0.0000 C    0  0  0  0  0  0  0  0  0  0  0  0
   24.1149  -10.5411    0.0000 C    0  0  0  0  0  0  0  0  0  0  0  0
   25.4116  -13.2337    0.0000 C    0  0  0  0  0  0  0  0  0  0  0  0
   25.9887  -12.0354    0.0000 C    0  0  0  0  0  0  0  0  0  0  0  0
   25.4116  -10.8371    0.0000 C    0  0  0  0  0  0  0  0  0  0  0  0
   27.3149  -12.1348    0.0000 C    0  0  0  0  0  0  0  0  0  0  0  0
   28.0642  -11.0359    0.0000 C    0  0  0  0  0  0  0  0  0  0  0  0
   26.1608   -9.7382    0.0000 C    0  0  0  0  0  0  0  0  0  0  0  0
   27.4871   -9.8376    0.0000 C    0  0  0  0  0  0  0  0  0  0  0  0
   21.9233  -13.3654    0.0000 C    0  0  0  0  0  0  0  0  0  0  0  0
   20.7715  -12.7004    0.0000 C    0  0  0  0  0  0  0  0  0  0  0  0
   21.9233  -10.7054    0.0000 C    0  0  0  0  0  0  0  0  0  0  0  0
   20.7715  -11.3704    0.0000 C    0  0  0  0  0  0  0  0  0  0  0  0
   29.6446   -6.6019    0.0000 P    0  0  0  0  0  0  0  0  0  0  0  0
   30.2355   -7.7934    0.0000 C    0  0  0  0  0  0  0  0  0  0  0  0
   31.5629   -7.8775    0.0000 C    0  0  0  0  0  0  0  0  0  0  0  0
   29.4991   -8.9010    0.0000 C    0  0  0  0  0  0  0  0  0  0  0  0
   32.1537   -9.0691    0.0000 C    0  0  0  0  0  0  0  0  0  0  0  0
   30.0900  -10.0925    0.0000 C    0  0  0  0  0  0  0  0  0  0  0  0
   31.4173  -10.1766    0.0000 C    0  0  0  0  0  0  0  0  0  0  0  0
   30.3810   -5.4944    0.0000 C    0  0  0  0  0  0  0  0  0  0  0  0
   29.7901   -4.3029    0.0000 C    0  0  0  0  0  0  0  0  0  0  0  0
   31.7084   -5.5784    0.0000 C    0  0  0  0  0  0  0  0  0  0  0  0
   30.5266   -3.1954    0.0000 C    0  0  0  0  0  0  0  0  0  0  0  0
   32.4448   -4.4709    0.0000 C    0  0  0  0  0  0  0  0  0  0  0  0
   31.8539   -3.2794    0.0000 C    0  0  0  0  0  0  0  0  0  0  0  0
  1  2  1  0  0  0  0
  1  3  2  0  0  0  0
  2  4  2  0  0  0  0
  3  5  1  0  0  0  0
  4  6  1  0  0  0  0
  5  6  2  0  0  0  0
  7  8  1  0  0  0  0
  9 11  1  0  0  0  0
 10 12  1  0  0  0  0
 11 13  2  0  0  0  0
 12 15  1  0  0  0  0
 13 14  1  0  0  0  0
 14 16  1  0  0  0  0
 14 15  2  0  0  0  0
 16 17  2  0  0  0  0
 15 18  1  0  0  0  0
 17 19  1  0  0  0  0
 19 18  2  0  0  0  0
  9 20  1  0  0  0  0
  9 10  2  0  0  0  0
 20 21  2  0  0  0  0
 10 22  1  0  0  0  0
 21 23  1  0  0  0  0
 22 23  2  0  0  0  0
  8 12  2  0  0  0  0
  7 24  1  0  0  0  0
 25 27  1  0  0  0  0
 26 28  1  0  0  0  0
 27 29  2  0  0  0  0
 28 31  1  0  0  0  0
 29 30  1  0  0  0  0
 30 32  1  0  0  0  0
 30 31  2  0  0  0  0
 32 33  2  0  0  0  0
 31 34  1  0  0  0  0
 33 35  1  0  0  0  0
 34 35  2  0  0  0  0
 25 36  1  0  0  0  0
 25 26  2  0  0  0  0
 36 37  2  0  0  0  0
 26 38  1  0  0  0  0
 37 39  1  0  0  0  0
 38 39  2  0  0  0  0
 24 28  2  0  0  0  0
  7 40  1  0  0  0  0
 41 42  1  0  0  0  0
 41 43  2  0  0  0  0
 42 44  2  0  0  0  0
 43 45  1  0  0  0  0
 44 46  1  0  0  0  0
 45 46  2  0  0  0  0
 40 41  1  0  0  0  0
 47 48  1  0  0  0  0
 47 49  2  0  0  0  0
 48 50  2  0  0  0  0
 49 51  1  0  0  0  0
 50 52  1  0  0  0  0
 51 52  2  0  0  0  0
 40 47  1  0  0  0  0
  2 40  1  0  0  0  0
M  END
> <NMREDATA_VERSION>
1.1

> <NMREDATA_LEVEL>
0

> <NMREDATA_SOLVENT>
THF

> <NMREDATA_TEMPERATURE>
200

> <NMREDATA_FORMULA>
C48H36N2PRh

> <NMREDATA_SMILES>
c1ccc(cc1)P([Rh](N=c1c2ccccc2ccc2c1cccc2)N=c1c2ccccc2ccc2c1cccc2)(c1ccccc1)c1ccccc1

> <NMREDATA_ASSIGNMENT>
Rh7, 838.00, 7

> <NMREDATA_1D_103Rh>
838.00, L=Rh7

$$$$

  ACD/LABS02072409492D

 31 34  0  0  0  0  0  0  0  0  1 V2000
   15.1066  -11.6963    0.0000 C    0  0  0  0  0  0  0  0  0  0  0  0
   15.4039  -10.3999    0.0000 C    0  0  0  0  0  0  0  0  0  0  0  0
   15.9349  -12.7369    0.0000 C    0  0  0  0  0  0  0  0  0  0  0  0
   16.6027   -9.8239    0.0000 C    0  0  0  0  0  0  0  0  0  0  0  0
   17.2650  -12.7380    0.0000 C    0  0  0  0  0  0  0  0  0  0  0  0
   18.0953  -11.6990    0.0000 C    0  0  0  0  0  0  0  0  0  0  0  0
   17.8005  -10.4020    0.0000 C    0  0  0  0  0  0  0  0  0  0  0  0
   20.8753   -9.7734    0.0000 C    0  0  0  0  0  0  0  0  0  0  0  0
   21.1726   -8.4770    0.0000 C    0  0  0  0  0  0  0  0  0  0  0  0
   21.7036  -10.8140    0.0000 C    0  0  0  0  0  0  0  0  0  0  0  0
   22.3714   -7.9010    0.0000 C    0  0  0  0  0  0  0  0  0  0  0  0
   23.0336  -10.8152    0.0000 C    0  0  0  0  0  0  0  0  0  0  0  0
   23.8640   -9.7761    0.0000 C    0  0  0  0  0  0  0  0  0  0  0  0
   23.5692   -8.4791    0.0000 C    0  0  0  0  0  0  0  0  0  0  0  0
    9.2459   -6.2013    0.0000 B    0  0  0  0  0  0  0  0  0  0  0  0
    5.1574   -6.6956    0.0000 C    0  0  0  0  0  0  0  0  0  0  0  0
    6.2341   -5.9148    0.0000 N    0  0  0  0  0  0  0  0  0  0  0  0
    5.5673   -7.9609    0.0000 C    0  0  0  0  0  0  0  0  0  0  0  0
    7.3094   -6.6975    0.0000 N    0  0  0  0  0  0  0  0  0  0  0  0
    6.8974   -7.9621    0.0000 C    0  0  0  0  0  0  0  0  0  0  0  0
    3.9740   -5.8808    0.0000 C    0  0  0  0  0  0  0  0  0  0  0  0
    7.6595   -9.1017    0.0000 C    0  0  0  0  0  0  0  0  0  0  0  0
   12.2104   -6.6981    0.0000 Rh   0  0  0  0  0  0  0  0  0  0  0  0
   16.4247   -7.3711    0.0000 P    0  0  0  0  0  0  0  0  0  0  0  0
   20.1062   -4.9662    0.0000 C    0  0  0  0  0  0  0  0  0  0  0  0
   20.4035   -3.6697    0.0000 C    0  0  0  0  0  0  0  0  0  0  0  0
   20.9345   -6.0068    0.0000 C    0  0  0  0  0  0  0  0  0  0  0  0
   21.6023   -3.0938    0.0000 C    0  0  0  0  0  0  0  0  0  0  0  0
   22.2645   -6.0079    0.0000 C    0  0  0  0  0  0  0  0  0  0  0  0
   23.0948   -4.9689    0.0000 C    0  0  0  0  0  0  0  0  0  0  0  0
   22.8001   -3.6719    0.0000 C    0  0  0  0  0  0  0  0  0  0  0  0
  1  2  1  0  0  0  0
  1  3  2  0  0  0  0
  2  4  1  0  0  0  0
  3  5  1  0  0  0  0
  4  7  2  0  0  0  0
  5  6  2  0  0  0  0
  6  7  1  0  0  0  0
  8  9  1  0  0  0  0
  8 10  2  0  0  0  0
  9 11  1  0  0  0  0
 10 12  1  0  0  0  0
 11 14  2  0  0  0  0
 12 13  2  0  0  0  0
 13 14  1  0  0  0  0
 16 17  2  0  0  0  0
 16 18  1  0  0  0  0
 17 19  1  0  0  0  0
 18 20  2  0  0  0  0
 19 20  1  0  0  0  0
 15 19  1  0  0  0  0
 16 21  1  0  0  0  0
 20 22  1  0  0  0  0
 15 23  1  0  0  0  0
 23 24  1  0  0  0  0
 25 26  1  0  0  0  0
 25 27  2  0  0  0  0
 26 28  1  0  0  0  0
 27 29  1  0  0  0  0
 28 31  2  0  0  0  0
 29 30  2  0  0  0  0
 30 31  1  0  0  0  0
 24 26  1  0  0  0  0
  9 24  1  0  0  0  0
  4 24  1  0  0  0  0
M  END
> <NMREDATA_VERSION>
1.1

> <NMREDATA_LEVEL>
0

> <NMREDATA_SOLVENT>
C6D6

> <NMREDATA_FORMULA>
C26H30BN2PRh

> <NMREDATA_SMILES>
Cc1nn(c(c1)C)B[Rh]P(C1=CC=CC=CC1)(C1C=CC=CC=C1)C1C=CC=CC=C1

> <NMREDATA_ASSIGNMENT>
Rh23, 1175.00, 23

> <NMREDATA_1D_103Rh>
1175.00, L=Rh23

$$$$
LaurenceCarlton-2008_00027.mol
  ChemDraw08142417022D

M  V30 COUNTS 45 52 0 0 0
  2.413094 -1.577662  0.000000 N    0  0  0  0  0  0  0
  2.499031 -0.760030  0.000000 C    0  0  0  0  0  0  0
  1.747973 -0.425638  0.000000 O    0  0  0  0  0  0  0
  3.211021 -0.348962  0.000000 C    0  0  0  0  0  0  0
 -1.371967 -2.172816  0.000000 C    0  0  0  0  0  0  0
 -2.083957 -2.583884  0.000000 C    0  0  0  0  0  0  0
 -0.659976 -2.583884  0.000000 C    0  0  0  0  0  0  0
 -2.083957 -3.406019  0.000000 C    0  0  0  0  0  0  0
 -0.659976 -3.406019  0.000000 C    0  0  0  0  0  0  0
 -1.371967 -3.817087  0.000000 C    0  0  0  0  0  0  0
  0.786788 -1.748593  0.000000 C    0  0  0  0  0  0  0
  1.608924 -1.748593  0.000000 C    0  0  0  0  0  0  0
  1.694861 -2.566226  0.000000 C    0  0  0  0  0  0  0
  0.621946 -0.185467  0.000000 Rh   0  0  0  0  0  0  0
  2.445919 -2.900618  0.000000 O    0  0  0  0  0  0  0
  1.029739 -3.049465  0.000000 O    0  0  0  0  0  0  0
 -1.266469  1.178289  0.000000 C    0  0  0  0  0  0  0
 -0.675074  1.749392  0.000000 C    0  0  0  0  0  0  0
  0.050829  1.363423  0.000000 P    0  0  0  0  0  0  0
 -0.906068  0.439357  0.000000 P    0  0  0  0  0  0  0
  1.363042  1.271664  0.000000 C    0  0  0  0  0  0  0
 -1.638597  0.066116  0.000000 C    0  0  0  0  0  0  0
 -0.805875 -0.376650  0.000000 C    0  0  0  0  0  0  0
  0.786400  2.453953  0.000000 C    0  0  0  0  0  0  0
  1.606534  2.396603  0.000000 C    0  0  0  0  0  0  0
  2.066266  3.078184  0.000000 C    0  0  0  0  0  0  0
  1.705866  3.817116  0.000000 C    0  0  0  0  0  0  0
  0.885733  3.874465  0.000000 C    0  0  0  0  0  0  0
  0.426000  3.192883  0.000000 C    0  0  0  0  0  0  0
  1.723443  0.532732  0.000000 C    0  0  0  0  0  0  0
  2.543575  0.475383  0.000000 C    0  0  0  0  0  0  0
  3.003308  1.156965  0.000000 C    0  0  0  0  0  0  0
  2.642907  1.895895  0.000000 C    0  0  0  0  0  0  0
  1.822775  1.953245  0.000000 C    0  0  0  0  0  0  0
 -1.366571 -0.977922  0.000000 C    0  0  0  0  0  0  0
 -1.126201 -1.764135  0.000000 C    0  0  0  0  0  0  0
 -0.325137 -1.949075  0.000000 C    0  0  0  0  0  0  0
  0.235558 -1.347803  0.000000 C    0  0  0  0  0  0  0
 -0.004811 -0.561591  0.000000 C    0  0  0  0  0  0  0
 -2.239869  0.626811  0.000000 C    0  0  0  0  0  0  0
 -3.026081  0.386442  0.000000 C    0  0  0  0  0  0  0
 -3.211021 -0.414623  0.000000 C    0  0  0  0  0  0  0
 -2.609749 -0.975318  0.000000 C    0  0  0  0  0  0  0
 -1.823537 -0.734948  0.000000 C    0  0  0  0  0  0  0
  1.029739 -3.874465  0.000000 C    0  0  0  0  0  0  0
  1  2  1  0  0  0  0
  2  3  2  0  0  0  0
  2  4  1  0  0  0  0
  5  6  1  0  0  0  0
  5  7  2  0  0  0  0
  6  8  2  0  0  0  0
  7  9  1  0  0  0  0
  8 10  1  0  0  0  0
  9 10  2  0  0  0  0
  7 11  1  0  0  0  0
 11 12  1  0  0  0  0
 12 13  1  0  0  0  0
 12  1  1  0  0  0  0
 13 15  2  0  0  0  0
 13 16  1  0  0  0  0
  3 14  1  0  0  0  0
 17 18  1  0  0  0  0
 18 19  1  0  0  0  0
 17 20  1  0  0  0  0
 19 21  1  0  0  0  0
 20 22  1  0  0  0  0
 20 23  1  0  0  0  0
 19 24  1  0  0  0  0
 24 25  2  0  0  0  0
 25 26  1  0  0  0  0
 26 27  2  0  0  0  0
 27 28  1  0  0  0  0
 28 29  2  0  0  0  0
 29 24  1  0  0  0  0
 21 30  2  0  0  0  0
 30 31  1  0  0  0  0
 31 32  2  0  0  0  0
 32 33  1  0  0  0  0
 33 34  2  0  0  0  0
 34 21  1  0  0  0  0
 23 35  2  0  0  0  0
 35 36  1  0  0  0  0
 36 37  2  0  0  0  0
 37 38  1  0  0  0  0
 38 39  2  0  0  0  0
 39 23  1  0  0  0  0
 22 40  2  0  0  0  0
 40 41  1  0  0  0  0
 41 42  2  0  0  0  0
 42 43  1  0  0  0  0
 43 44  2  0  0  0  0
 44 22  1  0  0  0  0
 14 19  1  0  0  0  0
 20 14  1  0  0  0  0
 14 12  1  0  0  0  0
 11 14  1  0  0  0  0
 16 45  1  0  0  0  0
M  END
> <NMREDATA_VERSION>
1.1

> <NMREDATA_LEVEL>
0

> <NMREDATA_SOLVENT>
CD3OD

> <NMREDATA_TEMPERATURE>
300

> <NMREDATA_FORMULA>
C38H39NO3P2Rh

> <NMREDATA_SMILES>
COC(=O)C12NC(=[O][Rh]32(C1c1ccccc1)P(CCP3(c1ccccc1)c1ccccc1)(c1ccccc1)c1ccccc1)C

> <NMREDATA_ASSIGNMENT>
Rh14, 340.00, 14

> <NMREDATA_1D_103Rh>
340.00, L=Rh14

$$$$
LaurenceCarlton-2008_00028.mol
  ChemDraw08142417032D

M  V30 COUNTS 48 55 0 0 0
  2.413094 -1.165162  0.000000 N    0  0  0  0  0  0  0
  2.499031 -0.347530  0.000000 C    0  0  0  0  0  0  0
  1.747973 -0.013138  0.000000 O    0  0  0  0  0  0  0
  3.211021  0.063538  0.000000 C    0  0  0  0  0  0  0
 -1.371967 -1.760316  0.000000 C    0  0  0  0  0  0  0
 -2.083957 -2.171384  0.000000 C    0  0  0  0  0  0  0
 -0.659976 -2.171384  0.000000 C    0  0  0  0  0  0  0
 -2.083957 -2.993519  0.000000 C    0  0  0  0  0  0  0
 -0.659976 -2.993519  0.000000 C    0  0  0  0  0  0  0
 -1.371967 -3.404587  0.000000 C    0  0  0  0  0  0  0
  0.786788 -1.336093  0.000000 C    0  0  0  0  0  0  0
  1.608924 -1.336093  0.000000 C    0  0  0  0  0  0  0
  1.694861 -2.153726  0.000000 C    0  0  0  0  0  0  0
  0.621946  0.227033  0.000000 Rh   0  0  0  0  0  0  0
  2.445919 -2.488118  0.000000 O    0  0  0  0  0  0  0
  1.029739 -2.636965  0.000000 O    0  0  0  0  0  0  0
 -1.266469  1.590789  0.000000 C    0  0  0  0  0  0  0
 -0.675074  2.161892  0.000000 C    0  0  0  0  0  0  0
  0.050829  1.775923  0.000000 P    0  0  0  0  0  0  0
 -0.906068  0.851857  0.000000 P    0  0  0  0  0  0  0
  1.363042  1.684164  0.000000 C    0  0  0  0  0  0  0
 -1.638597  0.478616  0.000000 C    0  0  0  0  0  0  0
 -0.805875  0.035850  0.000000 C    0  0  0  0  0  0  0
  0.786400  2.866453  0.000000 C    0  0  0  0  0  0  0
  1.606534  2.809103  0.000000 C    0  0  0  0  0  0  0
  2.066266  3.490684  0.000000 C    0  0  0  0  0  0  0
  1.705866  4.229616  0.000000 C    0  0  0  0  0  0  0
  0.885733  4.286965  0.000000 C    0  0  0  0  0  0  0
  0.426000  3.605383  0.000000 C    0  0  0  0  0  0  0
  1.723443  0.945232  0.000000 C    0  0  0  0  0  0  0
  2.543575  0.887883  0.000000 C    0  0  0  0  0  0  0
  3.003308  1.569465  0.000000 C    0  0  0  0  0  0  0
  2.642907  2.308395  0.000000 C    0  0  0  0  0  0  0
  1.822775  2.365745  0.000000 C    0  0  0  0  0  0  0
 -1.366571 -0.565422  0.000000 C    0  0  0  0  0  0  0
 -1.126201 -1.351635  0.000000 C    0  0  0  0  0  0  0
 -0.325137 -1.536575  0.000000 C    0  0  0  0  0  0  0
  0.235558 -0.935303  0.000000 C    0  0  0  0  0  0  0
 -0.004811 -0.149091  0.000000 C    0  0  0  0  0  0  0
 -2.239869  1.039311  0.000000 C    0  0  0  0  0  0  0
 -3.026081  0.798942  0.000000 C    0  0  0  0  0  0  0
 -3.211021 -0.002123  0.000000 C    0  0  0  0  0  0  0
 -2.609749 -0.562818  0.000000 C    0  0  0  0  0  0  0
 -1.823537 -0.322448  0.000000 C    0  0  0  0  0  0  0
  1.029739 -3.461965  0.000000 C    0  0  0  0  0  0  0
  0.315268 -3.874465  0.000000 C    0  0  0  0  0  0  0
  1.744210 -3.874465  0.000000 C    0  0  0  0  0  0  0
  1.029739 -4.286965  0.000000 C    0  0  0  0  0  0  0
  1  2  1  0  0  0  0
  2  3  2  0  0  0  0
  2  4  1  0  0  0  0
  5  6  1  0  0  0  0
  5  7  2  0  0  0  0
  6  8  2  0  0  0  0
  7  9  1  0  0  0  0
  8 10  1  0  0  0  0
  9 10  2  0  0  0  0
  7 11  1  0  0  0  0
 11 12  1  0  0  0  0
 12 13  1  0  0  0  0
 12  1  1  0  0  0  0
 13 15  2  0  0  0  0
 13 16  1  0  0  0  0
  3 14  1  0  0  0  0
 17 18  1  0  0  0  0
 18 19  1  0  0  0  0
 17 20  1  0  0  0  0
 19 21  1  0  0  0  0
 20 22  1  0  0  0  0
 20 23  1  0  0  0  0
 19 24  1  0  0  0  0
 24 25  2  0  0  0  0
 25 26  1  0  0  0  0
 26 27  2  0  0  0  0
 27 28  1  0  0  0  0
 28 29  2  0  0  0  0
 29 24  1  0  0  0  0
 21 30  2  0  0  0  0
 30 31  1  0  0  0  0
 31 32  2  0  0  0  0
 32 33  1  0  0  0  0
 33 34  2  0  0  0  0
 34 21  1  0  0  0  0
 23 35  2  0  0  0  0
 35 36  1  0  0  0  0
 36 37  2  0  0  0  0
 37 38  1  0  0  0  0
 38 39  2  0  0  0  0
 39 23  1  0  0  0  0
 22 40  2  0  0  0  0
 40 41  1  0  0  0  0
 41 42  2  0  0  0  0
 42 43  1  0  0  0  0
 43 44  2  0  0  0  0
 44 22  1  0  0  0  0
 14 19  1  0  0  0  0
 20 14  1  0  0  0  0
 14 12  1  0  0  0  0
 11 14  1  0  0  0  0
 16 45  1  0  0  0  0
 45 46  1  0  0  0  0
 45 47  1  0  0  0  0
 45 48  1  0  0  0  0
M  END
> <NMREDATA_VERSION>
1.1

> <NMREDATA_LEVEL>
0

> <NMREDATA_SOLVENT>
CD3OD

> <NMREDATA_TEMPERATURE>
300

> <NMREDATA_FORMULA>
C41H45NO3P2Rh

> <NMREDATA_SMILES>
CC1=[O][Rh]23(C(N1)(C2c1ccccc1)C(=O)OC(C)(C)C)P(CCP3(c1ccccc1)c1ccccc1)(c1ccccc1)c1ccccc1

> <NMREDATA_ASSIGNMENT>
Rh14, 304.00, 14

> <NMREDATA_1D_103Rh>
304.00, L=Rh14

$$$$
LaurenceCarlton-2008_00029.mol
  ChemDraw08142417032D

M  V30 COUNTS 44 51 0 0 0
  2.413094 -1.606351  0.000000 N    0  0  0  0  0  0  0
  2.499031 -0.788719  0.000000 C    0  0  0  0  0  0  0
  1.747973 -0.454327  0.000000 O    0  0  0  0  0  0  0
  3.211021 -0.377651  0.000000 C    0  0  0  0  0  0  0
 -1.371967 -2.201505  0.000000 C    0  0  0  0  0  0  0
 -2.083957 -2.612573  0.000000 C    0  0  0  0  0  0  0
 -0.659976 -2.612573  0.000000 C    0  0  0  0  0  0  0
 -2.083957 -3.434708  0.000000 C    0  0  0  0  0  0  0
 -0.659976 -3.434708  0.000000 C    0  0  0  0  0  0  0
 -1.371967 -3.845776  0.000000 C    0  0  0  0  0  0  0
  0.786788 -1.777282  0.000000 C    0  0  0  0  0  0  0
  1.608924 -1.777282  0.000000 C    0  0  0  0  0  0  0
  1.694861 -2.594915  0.000000 C    0  0  0  0  0  0  0
  0.621946 -0.214156  0.000000 Rh   0  0  0  0  0  0  0
  2.445919 -2.929307  0.000000 O    0  0  0  0  0  0  0
  1.029739 -3.078154  0.000000 O    0  0  0  0  0  0  0
 -1.266469  1.149599  0.000000 C    0  0  0  0  0  0  0
 -0.675074  1.720702  0.000000 C    0  0  0  0  0  0  0
  0.050829  1.334734  0.000000 P    0  0  0  0  0  0  0
 -0.906068  0.410668  0.000000 P    0  0  0  0  0  0  0
  1.363042  1.242975  0.000000 C    0  0  0  0  0  0  0
 -1.638597  0.037427  0.000000 C    0  0  0  0  0  0  0
 -0.805875 -0.405339  0.000000 C    0  0  0  0  0  0  0
  0.786400  2.425264  0.000000 C    0  0  0  0  0  0  0
  1.606534  2.367914  0.000000 C    0  0  0  0  0  0  0
  2.066266  3.049495  0.000000 C    0  0  0  0  0  0  0
  1.705866  3.788427  0.000000 C    0  0  0  0  0  0  0
  0.885733  3.845776  0.000000 C    0  0  0  0  0  0  0
  0.426000  3.164194  0.000000 C    0  0  0  0  0  0  0
  1.723443  0.504043  0.000000 C    0  0  0  0  0  0  0
  2.543575  0.446694  0.000000 C    0  0  0  0  0  0  0
  3.003308  1.128276  0.000000 C    0  0  0  0  0  0  0
  2.642907  1.867206  0.000000 C    0  0  0  0  0  0  0
  1.822775  1.924556  0.000000 C    0  0  0  0  0  0  0
 -1.366571 -1.006611  0.000000 C    0  0  0  0  0  0  0
 -1.126201 -1.792824  0.000000 C    0  0  0  0  0  0  0
 -0.325137 -1.977764  0.000000 C    0  0  0  0  0  0  0
  0.235558 -1.376492  0.000000 C    0  0  0  0  0  0  0
 -0.004811 -0.590280  0.000000 C    0  0  0  0  0  0  0
 -2.239869  0.598121  0.000000 C    0  0  0  0  0  0  0
 -3.026081  0.357753  0.000000 C    0  0  0  0  0  0  0
 -3.211021 -0.443312  0.000000 C    0  0  0  0  0  0  0
 -2.609749 -1.004007  0.000000 C    0  0  0  0  0  0  0
 -1.823537 -0.763638  0.000000 C    0  0  0  0  0  0  0
  1  2  1  0  0  0  0
  2  3  2  0  0  0  0
  2  4  1  0  0  0  0
  5  6  1  0  0  0  0
  5  7  2  0  0  0  0
  6  8  2  0  0  0  0
  7  9  1  0  0  0  0
  8 10  1  0  0  0  0
  9 10  2  0  0  0  0
  7 11  1  0  0  0  0
 11 12  1  0  0  0  0
 12 13  1  0  0  0  0
 12  1  1  0  0  0  0
 13 15  2  0  0  0  0
 13 16  1  0  0  0  0
  3 14  1  0  0  0  0
 17 18  1  0  0  0  0
 18 19  1  0  0  0  0
 17 20  1  0  0  0  0
 19 21  1  0  0  0  0
 20 22  1  0  0  0  0
 20 23  1  0  0  0  0
 19 24  1  0  0  0  0
 24 25  2  0  0  0  0
 25 26  1  0  0  0  0
 26 27  2  0  0  0  0
 27 28  1  0  0  0  0
 28 29  2  0  0  0  0
 29 24  1  0  0  0  0
 21 30  2  0  0  0  0
 30 31  1  0  0  0  0
 31 32  2  0  0  0  0
 32 33  1  0  0  0  0
 33 34  2  0  0  0  0
 34 21  1  0  0  0  0
 23 35  2  0  0  0  0
 35 36  1  0  0  0  0
 36 37  2  0  0  0  0
 37 38  1  0  0  0  0
 38 39  2  0  0  0  0
 39 23  1  0  0  0  0
 22 40  2  0  0  0  0
 40 41  1  0  0  0  0
 41 42  2  0  0  0  0
 42 43  1  0  0  0  0
 43 44  2  0  0  0  0
 44 22  1  0  0  0  0
 14 19  1  0  0  0  0
 20 14  1  0  0  0  0
 14 12  1  0  0  0  0
 11 14  1  0  0  0  0
M  END
> <NMREDATA_VERSION>
1.1

> <NMREDATA_LEVEL>
0

> <NMREDATA_SOLVENT>
CD3OD

> <NMREDATA_TEMPERATURE>
300

> <NMREDATA_FORMULA>
C37H37NO3P2Rh

> <NMREDATA_SMILES>
CC1=[O][Rh]23(C(N1)(C2c1ccccc1)C(=O)O)P(CCP3(c1ccccc1)c1ccccc1)(c1ccccc1)c1ccccc1

> <NMREDATA_ASSIGNMENT>
Rh14, 315.00, 14

> <NMREDATA_1D_103Rh>
315.00, L=Rh14

$$$$
LaurenceCarlton-2008_00030.mol
  ChemDraw08142417032D

M  V30 COUNTS 49 57 0 0 0
  1.698623 -1.606351  0.000000 N    0  0  0  0  0  0  0
  1.784560 -0.788719  0.000000 C    0  0  0  0  0  0  0
  1.033502 -0.454327  0.000000 O    0  0  0  0  0  0  0
  2.496550 -0.377651  0.000000 C    0  0  0  0  0  0  0
 -2.086438 -2.201505  0.000000 C    0  0  0  0  0  0  0
 -2.798428 -2.612573  0.000000 C    0  0  0  0  0  0  0
 -1.374447 -2.612573  0.000000 C    0  0  0  0  0  0  0
 -2.798428 -3.434708  0.000000 C    0  0  0  0  0  0  0
 -1.374447 -3.434708  0.000000 C    0  0  0  0  0  0  0
 -2.086438 -3.845776  0.000000 C    0  0  0  0  0  0  0
  0.072317 -1.777282  0.000000 C    0  0  0  0  0  0  0
  0.894453 -1.777282  0.000000 C    0  0  0  0  0  0  0
  0.980389 -2.594915  0.000000 C    0  0  0  0  0  0  0
 -0.092526 -0.214156  0.000000 Rh   0  0  0  0  0  0  0
  1.731448 -2.929307  0.000000 O    0  0  0  0  0  0  0
  0.315268 -3.078154  0.000000 O    0  0  0  0  0  0  0
 -1.980940  1.149599  0.000000 C    0  0  0  0  0  0  0
 -1.389546  1.720702  0.000000 C    0  0  0  0  0  0  0
 -0.663642  1.334734  0.000000 P    0  0  0  0  0  0  0
 -1.620539  0.410668  0.000000 P    0  0  0  0  0  0  0
  0.648570  1.242975  0.000000 C    0  0  0  0  0  0  0
 -2.353068  0.037427  0.000000 C    0  0  0  0  0  0  0
 -1.520346 -0.405339  0.000000 C    0  0  0  0  0  0  0
  0.071929  2.425264  0.000000 C    0  0  0  0  0  0  0
  0.892063  2.367914  0.000000 C    0  0  0  0  0  0  0
  1.351795  3.049495  0.000000 C    0  0  0  0  0  0  0
  0.991395  3.788427  0.000000 C    0  0  0  0  0  0  0
  0.171261  3.845776  0.000000 C    0  0  0  0  0  0  0
 -0.288471  3.164194  0.000000 C    0  0  0  0  0  0  0
  1.008971  0.504043  0.000000 C    0  0  0  0  0  0  0
  1.829104  0.446694  0.000000 C    0  0  0  0  0  0  0
  2.288837  1.128276  0.000000 C    0  0  0  0  0  0  0
  1.928436  1.867206  0.000000 C    0  0  0  0  0  0  0
  1.108303  1.924556  0.000000 C    0  0  0  0  0  0  0
 -2.081042 -1.006611  0.000000 C    0  0  0  0  0  0  0
 -1.840672 -1.792824  0.000000 C    0  0  0  0  0  0  0
 -1.039608 -1.977764  0.000000 C    0  0  0  0  0  0  0
 -0.478913 -1.376492  0.000000 C    0  0  0  0  0  0  0
 -0.719282 -0.590280  0.000000 C    0  0  0  0  0  0  0
 -2.954340  0.598121  0.000000 C    0  0  0  0  0  0  0
 -3.740552  0.357753  0.000000 C    0  0  0  0  0  0  0
 -3.925492 -0.443312  0.000000 C    0  0  0  0  0  0  0
 -3.324221 -1.004007  0.000000 C    0  0  0  0  0  0  0
 -2.538008 -0.763638  0.000000 C    0  0  0  0  0  0  0
  3.211021 -0.790151  0.000000 C    0  0  0  0  0  0  0
  3.925492 -0.377651  0.000000 C    0  0  0  0  0  0  0
  3.925492  0.447349  0.000000 C    0  0  0  0  0  0  0
  3.211021  0.859849  0.000000 C    0  0  0  0  0  0  0
  2.496550  0.447349  0.000000 C    0  0  0  0  0  0  0
  1  2  1  0  0  0  0
  2  3  2  0  0  0  0
  2  4  1  0  0  0  0
  5  6  1  0  0  0  0
  5  7  2  0  0  0  0
  6  8  2  0  0  0  0
  7  9  1  0  0  0  0
  8 10  1  0  0  0  0
  9 10  2  0  0  0  0
  7 11  1  0  0  0  0
 11 12  1  0  0  0  0
 12 13  1  0  0  0  0
 12  1  1  0  0  0  0
 13 15  2  0  0  0  0
 13 16  1  0  0  0  0
  3 14  1  0  0  0  0
 17 18  1  0  0  0  0
 18 19  1  0  0  0  0
 17 20  1  0  0  0  0
 19 21  1  0  0  0  0
 20 22  1  0  0  0  0
 20 23  1  0  0  0  0
 19 24  1  0  0  0  0
 24 25  2  0  0  0  0
 25 26  1  0  0  0  0
 26 27  2  0  0  0  0
 27 28  1  0  0  0  0
 28 29  2  0  0  0  0
 29 24  1  0  0  0  0
 21 30  2  0  0  0  0
 30 31  1  0  0  0  0
 31 32  2  0  0  0  0
 32 33  1  0  0  0  0
 33 34  2  0  0  0  0
 34 21  1  0  0  0  0
 23 35  2  0  0  0  0
 35 36  1  0  0  0  0
 36 37  2  0  0  0  0
 37 38  1  0  0  0  0
 38 39  2  0  0  0  0
 39 23  1  0  0  0  0
 22 40  2  0  0  0  0
 40 41  1  0  0  0  0
 41 42  2  0  0  0  0
 42 43  1  0  0  0  0
 43 44  2  0  0  0  0
 44 22  1  0  0  0  0
 14 19  1  0  0  0  0
 20 14  1  0  0  0  0
 14 12  1  0  0  0  0
 11 14  1  0  0  0  0
  4 45  2  0  0  0  0
 45 46  1  0  0  0  0
 46 47  2  0  0  0  0
 47 48  1  0  0  0  0
 48 49  2  0  0  0  0
 49  4  1  0  0  0  0
M  END
> <NMREDATA_VERSION>
1.1

> <NMREDATA_LEVEL>
0

> <NMREDATA_SOLVENT>
CD3OD

> <NMREDATA_TEMPERATURE>
300

> <NMREDATA_FORMULA>
C42H39NO3P2Rh

> <NMREDATA_SMILES>
OC(=O)C12NC(=[O][Rh]32(C1c1ccccc1)P(CCP3(c1ccccc1)c1ccccc1)(c1ccccc1)c1ccccc1)c1ccccc1

> <NMREDATA_ASSIGNMENT>
Rh14, 310.00, 14

> <NMREDATA_1D_103Rh>
310.00, L=Rh14

$$$$
LaurenceCarlton-2008_00031.mol
  ChemDraw08142417042D

M  V30 COUNTS 50 58 0 0 0
  1.698623 -1.605635  0.000000 N    0  0  0  0  0  0  0
  1.784560 -0.788003  0.000000 C    0  0  0  0  0  0  0
  1.033502 -0.453611  0.000000 O    0  0  0  0  0  0  0
  2.496550 -0.376935  0.000000 C    0  0  0  0  0  0  0
 -2.086438 -2.200789  0.000000 C    0  0  0  0  0  0  0
 -2.798428 -2.611857  0.000000 C    0  0  0  0  0  0  0
 -1.374447 -2.611857  0.000000 C    0  0  0  0  0  0  0
 -2.798428 -3.433992  0.000000 C    0  0  0  0  0  0  0
 -1.374447 -3.433992  0.000000 C    0  0  0  0  0  0  0
 -2.086438 -3.845060  0.000000 C    0  0  0  0  0  0  0
  0.072317 -1.776567  0.000000 C    0  0  0  0  0  0  0
  0.894453 -1.776567  0.000000 C    0  0  0  0  0  0  0
  0.980389 -2.594199  0.000000 C    0  0  0  0  0  0  0
 -0.092526 -0.213440  0.000000 Rh   0  0  0  0  0  0  0
  1.731448 -2.928591  0.000000 O    0  0  0  0  0  0  0
  0.315268 -3.077438  0.000000 O    0  0  0  0  0  0  0
 -1.980940  1.150315  0.000000 C    0  0  0  0  0  0  0
 -1.389546  1.721418  0.000000 C    0  0  0  0  0  0  0
 -0.663642  1.335450  0.000000 P    0  0  0  0  0  0  0
 -1.620539  0.411384  0.000000 P    0  0  0  0  0  0  0
  0.648570  1.243691  0.000000 C    0  0  0  0  0  0  0
 -2.353068  0.038143  0.000000 C    0  0  0  0  0  0  0
 -1.520346 -0.404623  0.000000 C    0  0  0  0  0  0  0
  0.071929  2.425980  0.000000 C    0  0  0  0  0  0  0
  0.892063  2.368630  0.000000 C    0  0  0  0  0  0  0
  1.351795  3.050211  0.000000 C    0  0  0  0  0  0  0
  0.991395  3.789143  0.000000 C    0  0  0  0  0  0  0
  0.171261  3.846492  0.000000 C    0  0  0  0  0  0  0
 -0.288471  3.164910  0.000000 C    0  0  0  0  0  0  0
  1.008971  0.504759  0.000000 C    0  0  0  0  0  0  0
  1.829104  0.447410  0.000000 C    0  0  0  0  0  0  0
  2.288837  1.128992  0.000000 C    0  0  0  0  0  0  0
  1.928436  1.867922  0.000000 C    0  0  0  0  0  0  0
  1.108303  1.925272  0.000000 C    0  0  0  0  0  0  0
 -2.081042 -1.005896  0.000000 C    0  0  0  0  0  0  0
 -1.840672 -1.792108  0.000000 C    0  0  0  0  0  0  0
 -1.039608 -1.977048  0.000000 C    0  0  0  0  0  0  0
 -0.478913 -1.375776  0.000000 C    0  0  0  0  0  0  0
 -0.719282 -0.589564  0.000000 C    0  0  0  0  0  0  0
 -2.954340  0.598837  0.000000 C    0  0  0  0  0  0  0
 -3.740552  0.358469  0.000000 C    0  0  0  0  0  0  0
 -3.925492 -0.442596  0.000000 C    0  0  0  0  0  0  0
 -3.324221 -1.003291  0.000000 C    0  0  0  0  0  0  0
 -2.538008 -0.762922  0.000000 C    0  0  0  0  0  0  0
  3.211021 -0.789435  0.000000 C    0  0  0  0  0  0  0
  3.925492 -0.376935  0.000000 C    0  0  0  0  0  0  0
  3.925492  0.448065  0.000000 C    0  0  0  0  0  0  0
  3.211021  0.860565  0.000000 C    0  0  0  0  0  0  0
  2.496550  0.448065  0.000000 C    0  0  0  0  0  0  0
 -3.512900 -3.846492  0.000000 O    0  0  0  0  0  0  0
  1  2  1  0  0  0  0
  2  3  2  0  0  0  0
  2  4  1  0  0  0  0
  5  6  1  0  0  0  0
  5  7  2  0  0  0  0
  6  8  2  0  0  0  0
  7  9  1  0  0  0  0
  8 10  1  0  0  0  0
  9 10  2  0  0  0  0
  7 11  1  0  0  0  0
 11 12  1  0  0  0  0
 12 13  1  0  0  0  0
 12  1  1  0  0  0  0
 13 15  2  0  0  0  0
 13 16  1  0  0  0  0
  3 14  1  0  0  0  0
 17 18  1  0  0  0  0
 18 19  1  0  0  0  0
 17 20  1  0  0  0  0
 19 21  1  0  0  0  0
 20 22  1  0  0  0  0
 20 23  1  0  0  0  0
 19 24  1  0  0  0  0
 24 25  2  0  0  0  0
 25 26  1  0  0  0  0
 26 27  2  0  0  0  0
 27 28  1  0  0  0  0
 28 29  2  0  0  0  0
 29 24  1  0  0  0  0
 21 30  2  0  0  0  0
 30 31  1  0  0  0  0
 31 32  2  0  0  0  0
 32 33  1  0  0  0  0
 33 34  2  0  0  0  0
 34 21  1  0  0  0  0
 23 35  2  0  0  0  0
 35 36  1  0  0  0  0
 36 37  2  0  0  0  0
 37 38  1  0  0  0  0
 38 39  2  0  0  0  0
 39 23  1  0  0  0  0
 22 40  2  0  0  0  0
 40 41  1  0  0  0  0
 41 42  2  0  0  0  0
 42 43  1  0  0  0  0
 43 44  2  0  0  0  0
 44 22  1  0  0  0  0
 14 19  1  0  0  0  0
 20 14  1  0  0  0  0
 14 12  1  0  0  0  0
 11 14  1  0  0  0  0
  4 45  2  0  0  0  0
 45 46  1  0  0  0  0
 46 47  2  0  0  0  0
 47 48  1  0  0  0  0
 48 49  2  0  0  0  0
 49  4  1  0  0  0  0
  8 50  1  0  0  0  0
M  END
> <NMREDATA_VERSION>
1.1

> <NMREDATA_LEVEL>
0

> <NMREDATA_SOLVENT>
CD3OD

> <NMREDATA_TEMPERATURE>
300

> <NMREDATA_FORMULA>
C42H39NO4P2Rh

> <NMREDATA_SMILES>
Oc1ccc(cc1)C1[Rh]23(C1(NC(=[O]2)c1ccccc1)C(=O)O)P(CCP3(c1ccccc1)c1ccccc1)(c1ccccc1)c1ccccc1

> <NMREDATA_ASSIGNMENT>
Rh14, 271.00, 14

> <NMREDATA_1D_103Rh>
271.00, L=Rh14

$$$$
LaurenceCarlton-2008_00032.mol
  ChemDraw08142417042D

M  V30 COUNTS 52 60 0 0 0
  1.849562 -1.193135  0.000000 N    0  0  0  0  0  0  0
  1.935499 -0.375503  0.000000 C    0  0  0  0  0  0  0
  1.184441 -0.041111  0.000000 O    0  0  0  0  0  0  0
  2.647489  0.035565  0.000000 C    0  0  0  0  0  0  0
 -1.935499 -1.788289  0.000000 C    0  0  0  0  0  0  0
 -2.647489 -2.199357  0.000000 C    0  0  0  0  0  0  0
 -1.223508 -2.199357  0.000000 C    0  0  0  0  0  0  0
 -2.647489 -3.021492  0.000000 C    0  0  0  0  0  0  0
 -1.223508 -3.021492  0.000000 C    0  0  0  0  0  0  0
 -1.935499 -3.432560  0.000000 C    0  0  0  0  0  0  0
  0.223256 -1.364067  0.000000 C    0  0  0  0  0  0  0
  1.045392 -1.364067  0.000000 C    0  0  0  0  0  0  0
  1.131329 -2.181699  0.000000 C    0  0  0  0  0  0  0
  0.058414  0.199060  0.000000 Rh   0  0  0  0  0  0  0
  1.882387 -2.516091  0.000000 O    0  0  0  0  0  0  0
  0.466207 -2.664938  0.000000 O    0  0  0  0  0  0  0
 -1.830001  1.562815  0.000000 C    0  0  0  0  0  0  0
 -1.238606  2.133918  0.000000 C    0  0  0  0  0  0  0
 -0.512703  1.747950  0.000000 P    0  0  0  0  0  0  0
 -1.469600  0.823884  0.000000 P    0  0  0  0  0  0  0
  0.799510  1.656191  0.000000 C    0  0  0  0  0  0  0
 -2.202129  0.450643  0.000000 C    0  0  0  0  0  0  0
 -1.369407  0.007877  0.000000 C    0  0  0  0  0  0  0
  0.222869  2.838480  0.000000 C    0  0  0  0  0  0  0
  1.043002  2.781130  0.000000 C    0  0  0  0  0  0  0
  1.502734  3.462711  0.000000 C    0  0  0  0  0  0  0
  1.142334  4.201643  0.000000 C    0  0  0  0  0  0  0
  0.322201  4.258992  0.000000 C    0  0  0  0  0  0  0
 -0.137532  3.577410  0.000000 C    0  0  0  0  0  0  0
  1.159911  0.917259  0.000000 C    0  0  0  0  0  0  0
  1.980043  0.859910  0.000000 C    0  0  0  0  0  0  0
  2.439776  1.541492  0.000000 C    0  0  0  0  0  0  0
  2.079375  2.280422  0.000000 C    0  0  0  0  0  0  0
  1.259243  2.337772  0.000000 C    0  0  0  0  0  0  0
 -1.930103 -0.593396  0.000000 C    0  0  0  0  0  0  0
 -1.689733 -1.379608  0.000000 C    0  0  0  0  0  0  0
 -0.888669 -1.564548  0.000000 C    0  0  0  0  0  0  0
 -0.327974 -0.963276  0.000000 C    0  0  0  0  0  0  0
 -0.568343 -0.177064  0.000000 C    0  0  0  0  0  0  0
 -2.803400  1.011337  0.000000 C    0  0  0  0  0  0  0
 -3.589613  0.770969  0.000000 C    0  0  0  0  0  0  0
 -3.774553 -0.030096  0.000000 C    0  0  0  0  0  0  0
 -3.173281 -0.590791  0.000000 C    0  0  0  0  0  0  0
 -2.387069 -0.350422  0.000000 C    0  0  0  0  0  0  0
  3.361960 -0.376935  0.000000 C    0  0  0  0  0  0  0
  4.076432  0.035565  0.000000 C    0  0  0  0  0  0  0
  4.076432  0.860565  0.000000 C    0  0  0  0  0  0  0
  3.361960  1.273065  0.000000 C    0  0  0  0  0  0  0
  2.647489  0.860565  0.000000 C    0  0  0  0  0  0  0
 -3.361960 -3.433992  0.000000 N    0  3  0  0  0  0  0
 -4.076432 -3.021492  0.000000 O    0  0  0  0  0  0  0
 -3.361960 -4.258992  0.000000 O    0  5  0  0  0  0  0
  1  2  1  0  0  0  0
  2  3  2  0  0  0  0
  2  4  1  0  0  0  0
  5  6  1  0  0  0  0
  5  7  2  0  0  0  0
  6  8  2  0  0  0  0
  7  9  1  0  0  0  0
  8 10  1  0  0  0  0
  9 10  2  0  0  0  0
  7 11  1  0  0  0  0
 11 12  1  0  0  0  0
 12 13  1  0  0  0  0
 12  1  1  0  0  0  0
 13 15  2  0  0  0  0
 13 16  1  0  0  0  0
  3 14  1  0  0  0  0
 17 18  1  0  0  0  0
 18 19  1  0  0  0  0
 17 20  1  0  0  0  0
 19 21  1  0  0  0  0
 20 22  1  0  0  0  0
 20 23  1  0  0  0  0
 19 24  1  0  0  0  0
 24 25  2  0  0  0  0
 25 26  1  0  0  0  0
 26 27  2  0  0  0  0
 27 28  1  0  0  0  0
 28 29  2  0  0  0  0
 29 24  1  0  0  0  0
 21 30  2  0  0  0  0
 30 31  1  0  0  0  0
 31 32  2  0  0  0  0
 32 33  1  0  0  0  0
 33 34  2  0  0  0  0
 34 21  1  0  0  0  0
 23 35  2  0  0  0  0
 35 36  1  0  0  0  0
 36 37  2  0  0  0  0
 37 38  1  0  0  0  0
 38 39  2  0  0  0  0
 39 23  1  0  0  0  0
 22 40  2  0  0  0  0
 40 41  1  0  0  0  0
 41 42  2  0  0  0  0
 42 43  1  0  0  0  0
 43 44  2  0  0  0  0
 44 22  1  0  0  0  0
 14 19  1  0  0  0  0
 20 14  1  0  0  0  0
 14 12  1  0  0  0  0
 11 14  1  0  0  0  0
  4 45  2  0  0  0  0
 45 46  1  0  0  0  0
 46 47  2  0  0  0  0
 47 48  1  0  0  0  0
 48 49  2  0  0  0  0
 49  4  1  0  0  0  0
  8 50  1  0  0  0  0
 50 51  2  0  0  0  0
 50 52  1  0  0  0  0
M  END
> <NMREDATA_VERSION>
1.1

> <NMREDATA_LEVEL>
0

> <NMREDATA_SOLVENT>
CD3OD

> <NMREDATA_TEMPERATURE>
300

> <NMREDATA_FORMULA>
C42H40N2O5P2Rh

> <NMREDATA_SMILES>
OC(=O)C12NC(=[O][Rh]32(C1c1ccc(cc1)N(=O)O)P(CCP3(c1ccccc1)c1ccccc1)(c1ccccc1)c1ccccc1)c1ccccc1

> <NMREDATA_ASSIGNMENT>
Rh14, 495.00, 14

> <NMREDATA_1D_103Rh>
495.00, L=Rh14

$$$$

  ACD/LABS02072410522D

 38 41  0  0  0  0  0  0  0  0  1 V2000
   20.0055  -12.4473    0.0000 C    0  0  0  0  0  0  0  0  0  0  0  0
   21.0268  -11.5829    0.0000 C    0  0  0  0  0  0  0  0  0  0  0  0
   20.2448  -13.7528    0.0000 C    0  0  0  0  0  0  0  0  0  0  0  0
   22.2706  -12.0349    0.0000 C    0  0  0  0  0  0  0  0  0  0  0  0
   21.4889  -14.2049    0.0000 C    0  0  0  0  0  0  0  0  0  0  0  0
   22.5102  -13.3405    0.0000 C    0  0  0  0  0  0  0  0  0  0  0  0
   18.2114  -13.7457    0.0000 Rh   0  0  0  0  0  0  0  0  0  0  0  0
   19.0582  -12.7399    0.0000 Cl   0  0  0  0  0  0  0  0  0  0  0  0
   19.2325  -14.6014    0.0000 P    0  0  0  0  0  0  0  0  0  0  0  0
   16.3812  -16.7741    0.0000 C    0  0  0  0  0  0  0  0  0  0  0  0
   17.0468  -17.9262    0.0000 C    0  0  0  0  0  0  0  0  0  0  0  0
   17.0462  -15.6222    0.0000 C    0  0  0  0  0  0  0  0  0  0  0  0
   18.3777  -17.9267    0.0000 C    0  0  0  0  0  0  0  0  0  0  0  0
   18.3768  -15.6226    0.0000 C    0  0  0  0  0  0  0  0  0  0  0  0
   19.0427  -16.7749    0.0000 C    0  0  0  0  0  0  0  0  0  0  0  0
   20.2540  -15.4573    0.0000 C    0  0  0  0  0  0  0  0  0  0  0  0
   20.0203  -16.7659    0.0000 C    0  0  0  0  0  0  0  0  0  0  0  0
   21.0418  -17.6219    0.0000 O    0  0  0  0  0  0  0  0  0  0  0  0
   20.8082  -18.9310    0.0000 C    0  0  0  0  0  0  0  0  0  0  0  0
   13.7226  -11.5020    0.0000 C    0  0  0  0  0  0  0  0  0  0  0  0
   12.7011  -10.6461    0.0000 C    0  0  0  0  0  0  0  0  0  0  0  0
   14.9694  -11.0449    0.0000 C    0  0  0  0  0  0  0  0  0  0  0  0
   12.9299   -9.3451    0.0000 C    0  0  0  0  0  0  0  0  0  0  0  0
   15.1984   -9.7436    0.0000 C    0  0  0  0  0  0  0  0  0  0  0  0
   14.1772   -8.8879    0.0000 C    0  0  0  0  0  0  0  0  0  0  0  0
   15.9905  -11.9006    0.0000 P    0  0  0  0  0  0  0  0  0  0  0  0
   17.2327   -8.6145    0.0000 C    0  0  0  0  0  0  0  0  0  0  0  0
   18.5458   -8.8403    0.0000 C    0  0  0  0  0  0  0  0  0  0  0  0
   16.3888   -9.6324    0.0000 C    0  0  0  0  0  0  0  0  0  0  0  0
   19.0033  -10.0873    0.0000 C    0  0  0  0  0  0  0  0  0  0  0  0
   16.8419  -10.8870    0.0000 C    0  0  0  0  0  0  0  0  0  0  0  0
   18.1551  -11.1128    0.0000 C    0  0  0  0  0  0  0  0  0  0  0  0
   15.1394  -12.9139    0.0000 C    0  0  0  0  0  0  0  0  0  0  0  0
   13.8259  -12.6879    0.0000 C    0  0  0  0  0  0  0  0  0  0  0  0
   12.9745  -13.7015    0.0000 O    0  0  0  0  0  0  0  0  0  0  0  0
   11.6692  -13.4802    0.0000 C    0  0  0  0  0  0  0  0  0  0  0  0
   17.3557  -14.7669    0.0000 C    0  0  0  0  0  0  0  0  0  0  0  0
   16.0504  -14.5456    0.0000 C    0  0  0  0  0  0  0  0  0  0  0  0
  1  2  1  0  0  0  0
  1  3  1  0  0  0  0
  2  4  1  0  0  0  0
  3  5  1  0  0  0  0
  4  6  1  0  0  0  0
  5  6  1  0  0  0  0
  7  8  1  0  0  0  0
  7  9  1  0  0  0  0
  3  9  1  0  0  0  0
 10 11  1  0  0  0  0
 10 12  1  0  0  0  0
 11 13  1  0  0  0  0
 12 14  1  0  0  0  0
 13 15  1  0  0  0  0
 14 15  1  0  0  0  0
  9 14  1  0  0  0  0
  9 16  1  0  0  0  0
 16 17  1  0  0  0  0
 17 18  1  0  0  0  0
 18 19  1  0  0  0  0
 20 21  1  0  0  0  0
 20 22  1  0  0  0  0
 21 23  1  0  0  0  0
 22 24  1  0  0  0  0
 23 25  1  0  0  0  0
 24 25  1  0  0  0  0
 22 26  1  0  0  0  0
 27 28  1  0  0  0  0
 27 29  1  0  0  0  0
 28 30  1  0  0  0  0
 29 31  1  0  0  0  0
 30 32  1  0  0  0  0
 31 32  1  0  0  0  0
 26 31  1  0  0  0  0
 26 33  1  0  0  0  0
 33 34  1  0  0  0  0
 34 35  1  0  0  0  0
 35 36  1  0  0  0  0
  7 26  1  0  0  0  0
  7 37  2  0  0  0  0
 37 38  1  0  0  0  0
M  END
> <NMREDATA_VERSION>
1.1

> <NMREDATA_LEVEL>
0

> <NMREDATA_SOLVENT>
C6D6

> <NMREDATA_TEMPERATURE>
295

> <NMREDATA_FORMULA>
C32H64ClO2P2Rh

> <NMREDATA_SMILES>
COCCP([Rh](=CC)(P(C1CCCCC1)(C1CCCCC1)CCOC)Cl)(C1CCCCC1)C1CCCCC1

> <NMREDATA_ASSIGNMENT>
Rh7, 271.00, 7

> <NMREDATA_1D_103Rh>
271.00, L=Rh7

$$$$
LaurenceCarlton-2008_00047.mol
  ChemDraw08192413102D

M  V30 COUNTS 49 59 0 0 1
  2.691985  1.867087  0.000000 C    0  0  0  0  0  0  0
  1.977467  1.454589  0.000000 C    0  0  0  0  0  0  0
  2.814927  2.682836  0.000000 C    0  0  0  0  0  0  0
  1.209541  1.755991  0.000000 C    0  0  0  0  0  0  0
  2.253746  3.287623  0.000000 C    0  0  0  0  0  0  0
  1.431112  3.225966  0.000000 C    0  0  0  0  0  0  0
  0.966326  2.544323  0.000000 C    0  0  0  0  0  0  0
  1.073139  3.969265  0.000000 C    0  0  0  0  0  0  0
  0.250444  4.030921  0.000000 C    0  0  0  0  0  0  0
  0.143689  2.605980  0.000000 C    0  0  0  0  0  0  0
 -0.214281  3.349279  0.000000 C    0  0  0  0  0  0  0
  3.406440  1.454589  0.000000 C    0  0  0  0  0  0  0
  3.406440  0.629599  0.000000 C    0  0  0  0  0  0  0
  1.977467  0.629599  0.000000 C    0  0  0  0  0  0  0
  2.691985  0.217102  0.000000 C    0  0  0  0  0  0  0
 -0.367184  2.242302  0.000000 C    0  0  0  0  0  0  0
 -0.183578  1.438030  0.000000 C    0  0  0  0  0  0  0
 -1.155516  2.485521  0.000000 C    0  0  0  0  0  0  0
 -0.788363  0.876849  0.000000 C    0  0  0  0  0  0  0
 -1.760241  1.924339  0.000000 C    0  0  0  0  0  0  0
 -1.576697  1.120066  0.000000 C    0  0  0  0  0  0  0
 -0.604758  0.072574  0.000000 N    0  0  0  0  0  0  0
  0.604756  1.194813  0.000000 N    0  0  0  0  0  0  0
 -2.691924 -0.599638  0.000000 C    0  0  0  0  0  0  0
 -1.977468 -0.187142  0.000000 C    0  0  0  0  0  0  0
 -2.814928 -1.415450  0.000000 C    0  0  0  0  0  0  0
 -1.209543 -0.488544  0.000000 C    0  0  0  0  0  0  0
 -2.253747 -2.020174  0.000000 C    0  0  0  0  0  0  0
 -1.431113 -1.958581  0.000000 C    0  0  0  0  0  0  0
 -0.966326 -1.276937  0.000000 C    0  0  0  0  0  0  0
 -1.073142 -2.701816  0.000000 C    0  0  0  0  0  0  0
 -0.250444 -2.763475  0.000000 C    0  0  0  0  0  0  0
 -0.143692 -1.338534  0.000000 C    0  0  0  0  0  0  0
  0.214280 -2.081832  0.000000 C    0  0  0  0  0  0  0
 -3.406440 -0.187142  0.000000 C    0  0  0  0  0  0  0
 -3.406440  0.637850  0.000000 C    0  0  0  0  0  0  0
 -1.977468  0.637850  0.000000 C    0  0  0  0  0  0  0
 -2.691924  1.050346  0.000000 C    0  0  0  0  0  0  0
  0.807668 -0.359829  0.000000 Rh   0  3  0  0  0  0  0
  0.604756  2.019811  0.000000 H    0  0  0  0  0  0  0
 -1.401644  0.286100  0.000000 H    0  0  0  0  0  0  0
  2.514455 -2.291430  0.000000 S    0  0  0  0  0  0  0
  3.379207 -1.098665  0.000000 O    0  0  0  0  0  0  0
  1.798821 -1.118515  0.000000 O    0  0  0  0  0  0  0
  3.379207 -2.639292  0.000000 O    0  5  0  0  0  0  0
  1.739150 -3.056749  0.000000 C    0  0  0  0  0  0  0
  2.256103 -4.030921  0.000000 F    0  0  0  0  0  0  0
  1.113025 -4.001085  0.000000 F    0  0  0  0  0  0  0
  1.311829 -2.609516  0.000000 F    0  0  0  0  0  0  0
  1  3  1  0  0  0  0
  2  4  1  0  0  0  0
  3  5  1  0  0  0  0
  4  7  1  0  0  0  0
  5  6  1  0  0  0  0
  6  8  1  0  0  0  0
  6  7  2  0  0  0  0
  8  9  2  0  0  0  0
  7 10  1  0  0  0  0
  9 11  1  0  0  0  0
 10 11  2  0  0  0  0
  1 12  1  0  0  0  0
  1  2  2  0  0  0  0
 12 13  2  0  0  0  0
  2 14  1  0  0  0  0
 13 15  1  0  0  0  0
 14 15  2  0  0  0  0
 16 17  1  0  0  0  0
 16 18  1  0  0  0  0
 17 19  1  0  0  0  0
 18 20  1  0  0  0  0
 19 21  1  0  0  0  0
 20 21  1  0  0  0  0
 19 22  1  6  0  0  0
 17 23  1  1  0  0  0
  4 23  1  0  0  0  0
 24 26  1  0  0  0  0
 25 27  1  0  0  0  0
 26 28  1  0  0  0  0
 27 30  1  0  0  0  0
 28 29  1  0  0  0  0
 29 31  1  0  0  0  0
 29 30  2  0  0  0  0
 31 32  2  0  0  0  0
 30 33  1  0  0  0  0
 32 34  1  0  0  0  0
 33 34  2  0  0  0  0
 24 35  1  0  0  0  0
 24 25  2  0  0  0  0
 35 36  2  0  0  0  0
 25 37  1  0  0  0  0
 36 38  1  0  0  0  0
 37 38  2  0  0  0  0
 22 27  1  0  0  0  0
 23 39  1  0  0  0  0
 22 39  1  0  0  0  0
 23 40  1  0  0  0  0
 22 41  1  0  0  0  0
 26 39  1  0  0  0  0
 39 28  1  0  0  0  0
 39  5  1  0  0  0  0
  3 39  1  0  0  0  0
 42 43  2  0  0  0  0
 42 44  2  0  0  0  0
 42 45  1  0  0  0  0
 42 46  1  0  0  0  0
 46 47  1  0  0  0  0
 46 48  1  0  0  0  0
 46 49  1  0  0  0  0
M  END
> <NMREDATA_VERSION>
1.1

> <NMREDATA_LEVEL>
0

> <NMREDATA_SOLVENT>
CD3CN

> <NMREDATA_FORMULA>
C37H37F3N2O3RhS

> <NMREDATA_SMILES>
C1CC[C@@H]2[C@@H](C1)[NH2]1C3c4ccccc4C4[Rh]561([NH2]2C1c2c(C6C5c5c1cccc5)cccc2)C4c1c3cccc1.FC(S(=O)(=O)O)(F)F

> <NMREDATA_ASSIGNMENT>
Rh39, 922.00, 39

> <NMREDATA_1D_103Rh>
922.00, L=Rh39

$$$$
LaurenceCarlton-2008_00048.mol
  ChemDraw08192413112D

M  V30 COUNTS 40 51 0 0 1
  2.691990  1.233365  0.000000 C    0  0  0  0  0  0  0
  1.977470  0.820868  0.000000 C    0  0  0  0  0  0  0
  2.814932  2.049116  0.000000 C    0  0  0  0  0  0  0
  1.209543  1.122270  0.000000 C    0  0  0  0  0  0  0
  2.253750  2.653904  0.000000 C    0  0  0  0  0  0  0
  1.431114  2.592248  0.000000 C    0  0  0  0  0  0  0
  0.966327  1.910603  0.000000 C    0  0  0  0  0  0  0
  1.073142  3.335548  0.000000 C    0  0  0  0  0  0  0
  0.250444  3.397205  0.000000 C    0  0  0  0  0  0  0
  0.143690  1.972262  0.000000 C    0  0  0  0  0  0  0
 -0.214281  2.715562  0.000000 C    0  0  0  0  0  0  0
  3.406446  0.820868  0.000000 C    0  0  0  0  0  0  0
  3.406446 -0.004124  0.000000 C    0  0  0  0  0  0  0
  1.977470 -0.004124  0.000000 C    0  0  0  0  0  0  0
  2.691990 -0.416621  0.000000 C    0  0  0  0  0  0  0
 -0.367184  1.608582  0.000000 C    0  0  0  0  0  0  0
 -0.183578  0.804307  0.000000 C    0  0  0  0  0  0  0
 -1.155518  1.851800  0.000000 C    0  0  0  0  0  0  0
 -0.788364  0.243126  0.000000 C    0  0  0  0  0  0  0
 -1.760244  1.290619  0.000000 C    0  0  0  0  0  0  0
 -1.576699  0.486344  0.000000 C    0  0  0  0  0  0  0
 -0.604758 -0.561150  0.000000 N    0  0  0  0  0  0  0
  0.604758  0.561090  0.000000 N    0  0  0  0  0  0  0
 -2.691929 -1.233364  0.000000 C    0  0  0  0  0  0  0
 -1.977471 -0.820868  0.000000 C    0  0  0  0  0  0  0
 -2.814933 -2.049177  0.000000 C    0  0  0  0  0  0  0
 -1.209545 -1.122269  0.000000 C    0  0  0  0  0  0  0
 -2.253750 -2.653903  0.000000 C    0  0  0  0  0  0  0
 -1.431115 -2.592309  0.000000 C    0  0  0  0  0  0  0
 -0.966327 -1.910664  0.000000 C    0  0  0  0  0  0  0
 -1.073143 -3.335545  0.000000 C    0  0  0  0  0  0  0
 -0.250444 -3.397205  0.000000 C    0  0  0  0  0  0  0
 -0.143692 -1.972262  0.000000 C    0  0  0  0  0  0  0
  0.214280 -2.715560  0.000000 C    0  0  0  0  0  0  0
 -3.406446 -0.820868  0.000000 C    0  0  0  0  0  0  0
 -3.406446  0.004126  0.000000 C    0  0  0  0  0  0  0
 -1.977471  0.004126  0.000000 C    0  0  0  0  0  0  0
 -2.691929  0.416623  0.000000 C    0  0  0  0  0  0  0
  0.807669 -0.993554  0.000000 Rh   0  3  0  0  0  0  0
  0.604758  1.386090  0.000000 H    0  0  0  0  0  0  0
  1  3  1  0  0  0  0
  2  4  1  0  0  0  0
  3  5  1  0  0  0  0
  4  7  1  0  0  0  0
  5  6  1  0  0  0  0
  6  8  1  0  0  0  0
  6  7  2  0  0  0  0
  8  9  2  0  0  0  0
  7 10  1  0  0  0  0
  9 11  1  0  0  0  0
 10 11  2  0  0  0  0
  1 12  1  0  0  0  0
  1  2  2  0  0  0  0
 12 13  2  0  0  0  0
  2 14  1  0  0  0  0
 13 15  1  0  0  0  0
 14 15  2  0  0  0  0
 16 17  1  0  0  0  0
 16 18  1  0  0  0  0
 17 19  1  0  0  0  0
 18 20  1  0  0  0  0
 19 21  1  0  0  0  0
 20 21  1  0  0  0  0
 19 22  1  6  0  0  0
 17 23  1  1  0  0  0
  4 23  1  0  0  0  0
 24 26  1  0  0  0  0
 25 27  1  0  0  0  0
 26 28  1  0  0  0  0
 27 30  1  0  0  0  0
 28 29  1  0  0  0  0
 29 31  1  0  0  0  0
 29 30  2  0  0  0  0
 31 32  2  0  0  0  0
 30 33  1  0  0  0  0
 32 34  1  0  0  0  0
 33 34  2  0  0  0  0
 24 35  1  0  0  0  0
 24 25  2  0  0  0  0
 35 36  2  0  0  0  0
 25 37  1  0  0  0  0
 36 38  1  0  0  0  0
 37 38  2  0  0  0  0
 22 27  1  0  0  0  0
 23 39  1  0  0  0  0
 22 39  1  0  0  0  0
 23 40  1  0  0  0  0
  5 39  1  0  0  0  0
  3 39  1  0  0  0  0
 26 39  1  0  0  0  0
 28 39  1  0  0  0  0
M  END
> <NMREDATA_VERSION>
1.1

> <NMREDATA_LEVEL>
0

> <NMREDATA_SOLVENT>
CD3CN

> <NMREDATA_FORMULA>
C36H34N2Rh

> <NMREDATA_SMILES>
C1CC[C@@H]2[C@@H](C1)[NH2]1C3c4ccccc4C4[Rh]561(N2C1c2c(C6C5c5c1cccc5)cccc2)C4c1c3cccc1

> <NMREDATA_ASSIGNMENT>
Rh39, 736.00, 39

> <NMREDATA_1D_103Rh>
736.00, L=Rh39

$$$$
LaurenceCarlton-2008_00049.mol
  ChemDraw08192413122D

 57 68  0  0  1  0  0  0  0  0999 V2000
   -2.9776    2.5563    0.0000 C    0  0  0  0  0  0  0  0  0  0  0  0
   -2.1846    2.7764    0.0000 C    0  0  0  0  0  0  0  0  0  0  0  0
   -3.3035    1.7980    0.0000 C    0  0  0  0  0  0  0  0  0  0  0  0
   -1.5160    2.2945    0.0000 C    0  0  0  0  0  0  0  0  0  0  0  0
   -2.9147    1.0730    0.0000 C    0  0  0  0  0  0  0  0  0  0  0  0
   -2.0990    0.9263    0.0000 C    0  0  0  0  0  0  0  0  0  0  0  0
   -1.4778    1.4705    0.0000 C    0  0  0  0  0  0  0  0  0  0  0  0
   -1.9429    0.1161    0.0000 C    0  0  0  0  0  0  0  0  0  0  0  0
   -1.1585   -0.1533    0.0000 C    0  0  0  0  0  0  0  0  0  0  0  0
   -0.6986    1.1990    0.0000 C    0  0  0  0  0  0  0  0  0  0  0  0
   -0.5372    0.3907    0.0000 C    0  0  0  0  0  0  0  0  0  0  0  0
   -3.5689    3.1308    0.0000 C    0  0  0  0  0  0  0  0  0  0  0  0
   -3.3574    3.9291    0.0000 C    0  0  0  0  0  0  0  0  0  0  0  0
   -1.9783    3.5726    0.0000 C    0  0  0  0  0  0  0  0  0  0  0  0
   -2.5646    4.1491    0.0000 C    0  0  0  0  0  0  0  0  0  0  0  0
   -0.7636    2.6330    0.0000 N    0  0  0  0  0  0  0  0  0  0  0  0
    2.9991    2.5466    0.0000 C    0  0  0  0  0  0  0  0  0  0  0  0
    2.1976    2.7419    0.0000 C    0  0  0  0  0  0  0  0  0  0  0  0
    3.3455    1.7950    0.0000 C    0  0  0  0  0  0  0  0  0  0  0  0
    2.9747    1.0573    0.0000 C    0  0  0  0  0  0  0  0  0  0  0  0
    1.5409    2.2398    0.0000 C    0  0  0  0  0  0  0  0  0  0  0  0
    1.5290    1.4159    0.0000 C    0  0  0  0  0  0  0  0  0  0  0  0
    2.1633    0.8893    0.0000 C    0  0  0  0  0  0  0  0  0  0  0  0
    0.7605    1.1336    0.0000 C    0  0  0  0  0  0  0  0  0  0  0  0
    0.6203    0.3155    0.0000 C    0  0  0  0  0  0  0  0  0  0  0  0
    2.0292    0.0804    0.0000 C    0  0  0  0  0  0  0  0  0  0  0  0
    1.2578   -0.2065    0.0000 C    0  0  0  0  0  0  0  0  0  0  0  0
    0.8040    2.6107    0.0000 N    0  0  0  0  0  0  0  0  0  0  0  0
   -0.0107    0.6305    0.0000 Rh   0  3  0  0  0  0  0  0  0  0  0  0
    0.4049    3.3327    0.0000 C    0  0  0  0  0  0  0  0  0  0  0  0
   -0.3518    3.2879    0.0000 C    0  0  0  0  0  0  0  0  0  0  0  0
   -1.4329    3.1153    0.0000 H    0  0  0  0  0  0  0  0  0  0  0  0
    1.4936    3.0635    0.0000 H    0  0  0  0  0  0  0  0  0  0  0  0
   -0.7720    3.9979    0.0000 C    0  0  0  0  0  0  0  0  0  0  0  0
    0.8029    4.0554    0.0000 C    0  0  0  0  0  0  0  0  0  0  0  0
    0.3760    4.7613    0.0000 C    0  0  0  0  0  0  0  0  0  0  0  0
    0.7739    5.4840    0.0000 C    0  0  0  0  0  0  0  0  0  0  0  0
    1.5987    5.5007    0.0000 C    0  0  0  0  0  0  0  0  0  0  0  0
    2.0256    4.7947    0.0000 C    0  0  0  0  0  0  0  0  0  0  0  0
    1.6276    4.0721    0.0000 C    0  0  0  0  0  0  0  0  0  0  0  0
   -1.5969    3.9891    0.0000 C    0  0  0  0  0  0  0  0  0  0  0  0
   -2.0171    4.6990    0.0000 C    0  0  0  0  0  0  0  0  0  0  0  0
   -1.6123    5.4179    0.0000 C    0  0  0  0  0  0  0  0  0  0  0  0
   -0.7873    5.4267    0.0000 C    0  0  0  0  0  0  0  0  0  0  0  0
   -0.3672    4.7168    0.0000 C    0  0  0  0  0  0  0  0  0  0  0  0
    3.5689    3.1432    0.0000 C    0  0  0  0  0  0  0  0  0  0  0  0
    3.3372    3.9350    0.0000 C    0  0  0  0  0  0  0  0  0  0  0  0
    2.5356    4.1301    0.0000 C    0  0  0  0  0  0  0  0  0  0  0  0
    1.9658    3.5336    0.0000 C    0  0  0  0  0  0  0  0  0  0  0  0
   -0.3726   -3.9561    0.0000 S    0  0  0  0  0  0  0  0  0  0  0  0
    0.2452   -2.7603    0.0000 O    0  0  0  0  0  0  0  0  0  0  0  0
   -1.0203   -3.0095    0.0000 O    0  0  0  0  0  0  0  0  0  0  0  0
    0.8731   -4.6338    0.0000 O    0  5  0  0  0  0  0  0  0  0  0  0
   -1.1200   -4.7035    0.0000 C    0  0  0  0  0  0  0  0  0  0  0  0
   -2.1662   -4.1554    0.0000 F    0  0  0  0  0  0  0  0  0  0  0  0
   -1.6182   -5.2316    0.0000 F    0  0  0  0  0  0  0  0  0  0  0  0
   -0.0537   -5.5007    0.0000 F    0  0  0  0  0  0  0  0  0  0  0  0
  1  3  1  0  0
  2  4  1  0  0
  3  5  1  0  0
  4  7  1  0  0
  5  6  1  0  0
  6  8  1  0  0
  6  7  2  0  0
  8  9  2  0  0
  7 10  1  0  0
  9 11  1  0  0
 10 11  2  0  0
  1 12  1  0  0
  1  2  2  0  0
 12 13  2  0  0
  2 14  1  0  0
 13 15  1  0  0
 14 15  2  0  0
 17 19  1  0  0
 17 18  2  0  0
 19 20  1  0  0
 18 21  1  0  0
 20 23  1  0  0
 21 22  1  0  0
 22 24  1  0  0
 22 23  2  0  0
 24 25  1  0  0
 23 26  1  0  0
 25 27  1  0  0
 26 27  2  0  0
 21 28  1  0  0
 28 29  1  0  0
 16 29  1  0  0
 30 28  1  6  0
 30 31  1  0  0
 31 16  1  1  0
 16 32  1  0  0
 28 33  1  0  0
 34 31  1  0  0
 35 30  1  0  0
 35 36  2  0  0
 36 37  1  0  0
 37 38  2  0  0
 38 39  1  0  0
 39 40  2  0  0
 40 35  1  0  0
 34 41  2  0  0
 41 42  1  0  0
 42 43  2  0  0
 43 44  1  0  0
 44 45  2  0  0
 45 34  1  0  0
 17 46  1  0  0
 46 47  2  0  0
 47 48  1  0  0
 48 49  2  0  0
 49 18  1  0  0
 16  4  1  0  0
  3 29  1  0  0
  5 29  1  0  0
 19 29  1  0  0
 29 20  1  0  0
 50 51  2  0  0
 50 52  2  0  0
 50 53  1  0  0
 50 54  1  0  0
 54 55  1  0  0
 54 56  1  0  0
 54 57  1  0  0
M  END
> <NMREDATA_VERSION>
1.1

> <NMREDATA_LEVEL>
0

> <NMREDATA_SOLVENT>
CD3CN

> <NMREDATA_FORMULA>
C45H41F3N2O3RhS

> <NMREDATA_SMILES>
c1ccc(cc1)[C@H]1[C@H](c2ccccc2)[NH2]2[Rh]345([NH2]1C1c6ccccc6C3C4C3=C1CCC=C3)C1C5c3c(C2c2c1cccc2)cccc3.FC(S(=O)(=O)O)(F)F

> <NMREDATA_ASSIGNMENT>
Rh29, 917.00, 29

> <NMREDATA_1D_103Rh>
917.00, L=Rh29

$$$$

  ACD/LABS02072411432D

 62 66  0  0  0  0  0  0  0  0  1 V2000
   19.3016  -23.3817    0.0000 Si   0  0  0  0  0  0  0  0  0  0  0  0
   17.3301  -23.0300    0.0000 C    0  0  0  0  0  0  0  0  0  0  0  0
   21.2784  -23.7512    0.0000 C    0  0  0  0  0  0  0  0  0  0  0  0
   18.6140  -25.2673    0.0000 N    0  0  0  0  0  0  0  0  0  0  0  0
   21.4786  -19.6110    0.0000 O    0  0  0  0  0  0  0  0  0  0  0  0
   13.8209  -25.3686    0.0000 O    0  0  0  0  0  0  0  0  0  0  0  0
   15.0996  -26.8934    0.0000 C    0  0  0  0  0  0  0  0  0  0  0  0
   17.0825  -26.5577    0.0000 C    0  0  0  0  0  0  0  0  0  0  0  0
   18.9570  -27.2389    0.0000 C    0  0  0  0  0  0  0  0  0  0  0  0
   20.2284  -28.7750    0.0000 C    0  0  0  0  0  0  0  0  0  0  0  0
   19.5407  -30.6606    0.0000 O    0  0  0  0  0  0  0  0  0  0  0  0
   22.1996  -28.4326    0.0000 O    0  0  0  0  0  0  0  0  0  0  0  0
   14.4116  -28.7796    0.0000 O    0  0  0  0  0  0  0  0  0  0  0  0
   23.7960  -15.9983    0.0000 Si   0  0  0  0  0  0  0  0  0  0  0  0
   21.9177  -16.6874    0.0000 C    0  0  0  0  0  0  0  0  0  0  0  0
   25.6864  -15.3154    0.0000 C    0  0  0  0  0  0  0  0  0  0  0  0
   23.4539  -14.0265    0.0000 N    0  0  0  0  0  0  0  0  0  0  0  0
   24.4741  -21.3404    0.0000 Rh   0  0  0  0  0  0  0  0  0  0  0  0
   23.4832  -19.6119    0.0000 La   0  0  0  0  0  0  0  0  0  0  0  0
   24.4851  -17.8767    0.0000 O    0  0  0  0  0  0  0  0  0  0  0  0
   27.5359  -11.5250    0.0000 O    0  0  0  0  0  0  0  0  0  0  0  0
   25.6547  -10.8554    0.0000 C    0  0  0  0  0  0  0  0  0  0  0  0
   24.1232  -12.1458    0.0000 C    0  0  0  0  0  0  0  0  0  0  0  0
   22.1452  -12.4999    0.0000 C    0  0  0  0  0  0  0  0  0  0  0  0
   20.2712  -11.8190    0.0000 C    0  0  0  0  0  0  0  0  0  0  0  0
   18.7391  -13.1090    0.0000 O    0  0  0  0  0  0  0  0  0  0  0  0
   19.9098   -9.8523    0.0000 O    0  0  0  0  0  0  0  0  0  0  0  0
   25.3009   -8.8768    0.0000 O    0  0  0  0  0  0  0  0  0  0  0  0
   29.3860  -19.6725    0.0000 C    0  0  0  0  0  0  0  0  0  0  0  0
   28.0342  -21.1591    0.0000 O    0  0  0  0  0  0  0  0  0  0  0  0
   28.3828  -17.9369    0.0000 C    0  0  0  0  0  0  0  0  0  0  0  0
   26.2103  -20.3377    0.0000 C    0  0  0  0  0  0  0  0  0  0  0  0
   26.4194  -18.3453    0.0000 C    0  0  0  0  0  0  0  0  0  0  0  0
   25.4839  -23.0644    0.0000 C    0  0  0  0  0  0  0  0  0  0  0  0
   27.4818  -23.0770    0.0000 C    0  0  0  0  0  0  0  0  0  0  0  0
   19.4678  -20.8243    0.0000 Si   0  0  0  0  0  0  0  0  0  0  0  0
   20.4589  -22.5538    0.0000 C    0  0  0  0  0  0  0  0  0  0  0  0
   17.7316  -21.8271    0.0000 C    0  0  0  0  0  0  0  0  0  0  0  0
   17.9356  -19.5232    0.0000 N    0  0  0  0  0  0  0  0  0  0  0  0
   21.4675  -20.8069    0.0000 O    0  0  0  0  0  0  0  0  0  0  0  0
   12.7022  -17.9830    0.0000 O    0  0  0  0  0  0  0  0  0  0  0  0
   13.9925  -19.5145    0.0000 C    0  0  0  0  0  0  0  0  0  0  0  0
   15.9638  -19.1720    0.0000 C    0  0  0  0  0  0  0  0  0  0  0  0
   17.2466  -17.6448    0.0000 C    0  0  0  0  0  0  0  0  0  0  0  0
   17.6096  -15.6806    0.0000 C    0  0  0  0  0  0  0  0  0  0  0  0
   19.4812  -15.0032    0.0000 O    0  0  0  0  0  0  0  0  0  0  0  0
   16.0713  -14.3915    0.0000 O    0  0  0  0  0  0  0  0  0  0  0  0
   13.2932  -21.3933    0.0000 O    0  0  0  0  0  0  0  0  0  0  0  0
   24.4799  -25.3378    0.0000 Si   0  0  0  0  0  0  0  0  0  0  0  0
   26.2161  -24.3350    0.0000 C    0  0  0  0  0  0  0  0  0  0  0  0
   23.4780  -27.0730    0.0000 C    0  0  0  0  0  0  0  0  0  0  0  0
   26.2152  -26.3396    0.0000 N    0  0  0  0  0  0  0  0  0  0  0  0
   22.7456  -22.3313    0.0000 La   0  0  0  0  0  0  0  0  0  0  0  0
   22.7446  -24.3359    0.0000 O    0  0  0  0  0  0  0  0  0  0  0  0
   29.9492  -23.3451    0.0000 O    0  0  0  0  0  0  0  0  0  0  0  0
   29.9560  -25.3378    0.0000 C    0  0  0  0  0  0  0  0  0  0  0  0
   28.2198  -26.3405    0.0000 C    0  0  0  0  0  0  0  0  0  0  0  0
   27.2179  -28.0758    0.0000 C    0  0  0  0  0  0  0  0  0  0  0  0
   27.2180  -30.0802    0.0000 C    0  0  0  0  0  0  0  0  0  0  0  0
   25.4818  -31.0829    0.0000 O    0  0  0  0  0  0  0  0  0  0  0  0
   28.9526  -31.0817    0.0000 O    0  0  0  0  0  0  0  0  0  0  0  0
   31.6907  -26.3393    0.0000 O    0  0  0  0  0  0  0  0  0  0  0  0
  1  2  1  0  0  0  0
  1  3  1  0  0  0  0
  1  4  1  0  0  0  0
  1  5  1  0  0  0  0
  6  7  1  0  0  0  0
  7  8  1  0  0  0  0
  8  9  2  0  0  0  0
  9 10  1  0  0  0  0
 10 11  1  0  0  0  0
 10 12  2  0  0  0  0
  7 13  2  0  0  0  0
  4  8  1  0  0  0  0
  4  9  1  0  0  0  0
 14 15  1  0  0  0  0
 14 16  1  0  0  0  0
 14 17  1  0  0  0  0
 18 19  1  0  0  0  0
 19 20  1  0  0  0  0
 14 20  1  0  0  0  0
 21 22  1  0  0  0  0
 22 23  1  0  0  0  0
 23 24  2  0  0  0  0
 24 25  1  0  0  0  0
 25 26  1  0  0  0  0
 25 27  2  0  0  0  0
 22 28  2  0  0  0  0
 17 23  1  0  0  0  0
 17 24  1  0  0  0  0
  5 19  1  0  0  0  0
 29 30  1  0  0  0  0
 29 31  1  0  0  0  0
 30 32  1  0  0  0  0
 31 33  1  0  0  0  0
 32 33  1  0  0  0  0
 18 32  1  0  0  0  0
 18 34  2  0  0  0  0
 34 35  1  0  0  0  0
 36 37  1  0  0  0  0
 36 38  1  0  0  0  0
 36 39  1  0  0  0  0
 36 40  1  0  0  0  0
 41 42  1  0  0  0  0
 42 43  1  0  0  0  0
 43 44  2  0  0  0  0
 44 45  1  0  0  0  0
 45 46  1  0  0  0  0
 45 47  2  0  0  0  0
 42 48  2  0  0  0  0
 39 43  1  0  0  0  0
 39 44  1  0  0  0  0
 49 50  1  0  0  0  0
 49 51  1  0  0  0  0
 49 52  1  0  0  0  0
 53 54  1  0  0  0  0
 49 54  1  0  0  0  0
 55 56  1  0  0  0  0
 56 57  1  0  0  0  0
 57 58  2  0  0  0  0
 58 59  1  0  0  0  0
 59 60  1  0  0  0  0
 59 61  2  0  0  0  0
 56 62  2  0  0  0  0
 52 57  1  0  0  0  0
 52 58  1  0  0  0  0
 40 53  1  0  0  0  0
 18 53  1  0  0  0  0
M  END
> <NMREDATA_VERSION>
1.1

> <NMREDATA_LEVEL>
0

> <NMREDATA_SOLVENT>
C6D6

> <NMREDATA_TEMPERATURE>
297

> <NMREDATA_FORMULA>
C30H43La2N4O21RhSi4

> <NMREDATA_SMILES>
CC=[Rh]([La](O[Si](N1C(=C1C(=O)O)C(=O)O)(C)C)O[Si](N1C(=C1C(=O)O)C(=O)O)(C)C)([La](O[Si](N1C(=C1C(=O)O)C(=O)O)(C)C)O[Si](N1C(=C1C(=O)O)C(=O)O)(C)C)C1CCCO1

> <NMREDATA_ASSIGNMENT>
Rh18, 2242.00, 18

> <NMREDATA_1D_103Rh>
2242.00, L=Rh18

$$$$

  ACD/LABS02072411482D

 16 15  0  0  0  0  0  0  0  0  2 V2000
   20.5910  -21.5688    0.0000 Rh   0  5  0  0  0  0  0  0  0  0  0  0
   21.7287  -19.5983    0.0000 Cl   0  0  0  0  0  0  0  0  0  0  0  0
   21.7287  -23.5394    0.0000 C    0  0  0  0  0  0  0  0  0  0  0  0
   24.0041  -23.5394    0.0000 C    0  0  0  0  0  0  0  0  0  0  0  0
   25.1418  -25.5100    0.0000 C    0  0  0  0  0  0  0  0  0  0  0  0
   23.1712  -26.6477    0.0000 C    0  0  0  0  0  0  0  0  0  0  0  0
   27.1124  -24.3723    0.0000 C    0  0  0  0  0  0  0  0  0  0  0  0
   26.2795  -27.4806    0.0000 C    0  0  0  0  0  0  0  0  0  0  0  0
   28.5549  -27.4806    0.0000 N    0  0  0  0  0  0  0  0  0  0  0  0
   29.6927  -25.5100    0.0000 C    0  0  0  0  0  0  0  0  0  0  0  0
   29.6927  -29.4511    0.0000 C    0  0  0  0  0  0  0  0  0  0  0  0
   25.1418  -21.5688    0.0000 N    0  3  0  0  0  0  0  0  0  0  0  0
   26.2795  -19.5983    0.0000 C    0  0  0  0  0  0  0  0  0  0  0  0
   27.4172  -17.6277    0.0000 C    0  0  0  0  0  0  0  0  0  0  0  0
   18.3155  -21.5688    0.0000 C    0  0  0  0  0  0  0  0  0  0  0  0
   17.1778  -23.5394    0.0000 C    0  0  0  0  0  0  0  0  0  0  0  0
  1  2  1  0  0  0  0
  1  3  1  0  0  0  0
  3  4  1  0  0  0  0
  4  5  1  0  0  0  0
  5  6  1  0  0  0  0
  5  7  1  0  0  0  0
  5  8  1  0  0  0  0
  8  9  1  0  0  0  0
  9 10  1  0  0  0  0
  9 11  1  0  0  0  0
  4 12  1  0  0  0  0
 12 13  3  0  0  0  0
 13 14  1  0  0  0  0
  1 15  2  0  0  0  0
 15 16  1  0  0  0  0
M  END
> <NMREDATA_VERSION>
1.1

> <NMREDATA_LEVEL>
0

> <NMREDATA_SOLVENT>
DCCl3

> <NMREDATA_TEMPERATURE>
298

> <NMREDATA_FORMULA>
C12H25ClN2Rh

> <NMREDATA_SMILES>
CC#NC(C(CN(C)C)(C)C)C/[Rh](=C\C)/Cl

> <NMREDATA_ASSIGNMENT>
Rh1, 652.00, 1

> <NMREDATA_1D_103Rh>
652.00, L=Rh1

$$$$

  ACD/LABS02072411552D

 14 13  0  0  0  0  0  0  0  0  2 V2000
   22.3055  -23.8919    0.0000 N    0  0  0  0  0  0  0  0  0  0  0  0
   21.2319  -25.7515    0.0000 C    0  0  0  0  0  0  0  0  0  0  0  0
   23.3792  -22.0324    0.0000 Rh   0  3  0  0  0  0  0  0  0  0  0  0
   22.3055  -20.1728    0.0000 Cl   0  0  0  0  0  0  0  0  0  0  0  0
   25.5264  -22.0324    0.0000 C    0  0  0  0  0  0  0  0  0  0  0  0
   26.6000  -23.8919    0.0000 C    0  5  0  0  0  0  0  0  0  0  0  0
   28.7472  -23.8919    0.0000 C    0  0  0  0  0  0  0  0  0  0  0  0
   28.7472  -21.7447    0.0000 C    0  0  0  0  0  0  0  0  0  0  0  0
   28.7472  -26.0392    0.0000 C    0  0  0  0  0  0  0  0  0  0  0  0
   30.8945  -23.8919    0.0000 C    0  0  0  0  0  0  0  0  0  0  0  0
   31.9681  -22.0324    0.0000 N    0  0  0  0  0  0  0  0  0  0  0  0
   30.8945  -20.1728    0.0000 C    0  0  0  0  0  0  0  0  0  0  0  0
   34.1153  -22.0324    0.0000 C    0  0  0  0  0  0  0  0  0  0  0  0
   20.1583  -27.6110    0.0000 C    0  0  0  0  0  0  0  0  0  0  0  0
  1  2  3  0  0  0  0
  3  4  1  0  0  0  0
  3  5  1  0  0  0  0
  5  6  1  0  0  0  0
  6  7  1  0  0  0  0
  7  8  1  0  0  0  0
  7  9  1  0  0  0  0
  7 10  1  0  0  0  0
 10 11  1  0  0  0  0
 11 12  1  0  0  0  0
 11 13  1  0  0  0  0
  1  3  1  0  0  0  0
  2 14  1  0  0  0  0
M  END
> <NMREDATA_VERSION>
1.1

> <NMREDATA_LEVEL>
0

> <NMREDATA_SOLVENT>
CD3CN

> <NMREDATA_TEMPERATURE>
298

> <NMREDATA_FORMULA>
C10H22ClN2Rh

> <NMREDATA_SMILES>
CC#N[Rh](CCC(CN(C)C)(C)C)Cl

> <NMREDATA_ASSIGNMENT>
Rh3, 1696.00, 3

> <NMREDATA_1D_103Rh>
1696.00, L=Rh3

$$$$

  ACD/LABS02122409452D

 19 19  0  0  0  0  0  0  0  0  2 V2000
   17.5580   -4.5775    0.0000 Rh   0  0  0  0  0  0  0  0  0  0  0  0
   16.8929   -3.4256    0.0000 Cl   0  0  0  0  0  0  0  0  0  0  0  0
   18.8880   -4.5775    0.0000 C    0  0  0  0  0  0  0  0  0  0  0  0
   19.5530   -5.7293    0.0000 C    0  5  0  0  0  0  0  0  0  0  0  0
   20.8830   -5.7293    0.0000 C    0  0  0  0  0  0  0  0  0  0  0  0
   20.8830   -4.3993    0.0000 C    0  0  0  0  0  0  0  0  0  0  0  0
   20.8830   -7.0593    0.0000 C    0  0  0  0  0  0  0  0  0  0  0  0
   22.2130   -5.7293    0.0000 C    0  0  0  0  0  0  0  0  0  0  0  0
   22.8780   -4.5775    0.0000 N    0  0  0  0  0  0  0  0  0  0  0  0
   22.2130   -3.4256    0.0000 C    0  0  0  0  0  0  0  0  0  0  0  0
   24.2080   -4.5775    0.0000 C    0  0  0  0  0  0  0  0  0  0  0  0
   15.9119   -6.2174    0.0000 C    0  0  0  0  0  0  0  0  0  0  0  0
   14.7101   -7.3230    0.0000 N    0  3  0  0  0  0  0  0  0  0  0  0
   13.7313   -8.2235    0.0000 C    0  0  0  0  0  0  0  0  0  0  0  0
   14.0218   -9.5214    0.0000 C    0  0  0  0  0  0  0  0  0  0  0  0
   12.4620   -7.8261    0.0000 C    0  0  0  0  0  0  0  0  0  0  0  0
   13.0429  -10.4219    0.0000 C    0  0  0  0  0  0  0  0  0  0  0  0
   11.4832   -8.7266    0.0000 C    0  0  0  0  0  0  0  0  0  0  0  0
   11.7737  -10.0245    0.0000 N    0  0  0  0  0  0  0  0  0  0  0  0
  1  2  1  0  0  0  0
  1  3  1  0  0  0  0
  3  4  1  0  0  0  0
  4  5  1  0  0  0  0
  5  6  1  0  0  0  0
  5  7  1  0  0  0  0
  5  8  1  0  0  0  0
  8  9  1  0  0  0  0
  9 10  1  0  0  0  0
  9 11  1  0  0  0  0
  1 12  1  0  0  0  0
 12 13  3  0  0  0  0
 14 15  1  0  0  0  0
 14 16  2  0  0  0  0
 15 17  2  0  0  0  0
 16 18  1  0  0  0  0
 17 19  1  0  0  0  0
 18 19  2  0  0  0  0
 13 14  1  0  0  0  0
M  END
> <NMREDATA_VERSION>
1.1

> <NMREDATA_LEVEL>
0

> <NMREDATA_SOLVENT>
CD2Cl2

> <NMREDATA_TEMPERATURE>
298

> <NMREDATA_FORMULA>
C14H23ClN3Rh

> <NMREDATA_SMILES>
CN(CC(CC[Rh](C#Nc1ccncc1)Cl)(C)C)C

> <NMREDATA_ASSIGNMENT>
Rh1, 2029.00, 1

> <NMREDATA_1D_103Rh>
2029.00, L=Rh1

$$$$

  ACD/LABS02122410462D

 17 17  0  0  0  0  0  0  0  0  2 V2000
   15.1856   -6.9238    0.0000 C    0  0  0  0  0  0  0  0  0  0  0  0
   15.8506   -8.0756    0.0000 C    0  0  0  0  0  0  0  0  0  0  0  0
   13.8556   -6.9238    0.0000 C    0  0  0  0  0  0  0  0  0  0  0  0
   15.1856   -9.2274    0.0000 C    0  0  0  0  0  0  0  0  0  0  0  0
   13.1906   -8.0756    0.0000 C    0  0  0  0  0  0  0  0  0  0  0  0
   13.8556   -9.2274    0.0000 N    0  0  0  0  0  0  0  0  0  0  0  0
   15.8506   -5.7719    0.0000 Rh   0  3  0  0  0  0  0  0  0  0  0  0
   15.1856   -4.6201    0.0000 Cl   0  0  0  0  0  0  0  0  0  0  0  0
   17.1806   -5.7719    0.0000 C    0  0  0  0  0  0  0  0  0  0  0  0
   17.8456   -6.9238    0.0000 C    0  5  0  0  0  0  0  0  0  0  0  0
   19.1756   -6.9238    0.0000 C    0  0  0  0  0  0  0  0  0  0  0  0
   19.1756   -5.5938    0.0000 C    0  0  0  0  0  0  0  0  0  0  0  0
   19.1756   -8.2538    0.0000 C    0  0  0  0  0  0  0  0  0  0  0  0
   20.5056   -6.9238    0.0000 C    0  0  0  0  0  0  0  0  0  0  0  0
   21.1706   -8.0756    0.0000 N    0  0  0  0  0  0  0  0  0  0  0  0
   22.5006   -8.0756    0.0000 C    0  0  0  0  0  0  0  0  0  0  0  0
   20.5056   -9.2274    0.0000 C    0  0  0  0  0  0  0  0  0  0  0  0
  1  2  1  0  0  0  0
  1  3  2  0  0  0  0
  2  4  2  0  0  0  0
  3  5  1  0  0  0  0
  4  6  1  0  0  0  0
  5  6  2  0  0  0  0
  7  8  1  0  0  0  0
  7  9  1  0  0  0  0
  9 10  1  0  0  0  0
 10 11  1  0  0  0  0
 11 12  1  0  0  0  0
 11 13  1  0  0  0  0
 11 14  1  0  0  0  0
 14 15  1  0  0  0  0
 15 16  1  0  0  0  0
 15 17  1  0  0  0  0
  1  7  1  0  0  0  0
M  END
> <NMREDATA_VERSION>
1.1

> <NMREDATA_LEVEL>
0

> <NMREDATA_SOLVENT>
CD2Cl2

> <NMREDATA_TEMPERATURE>
298

> <NMREDATA_FORMULA>
C13H22ClN2Rh

> <NMREDATA_SMILES>
CN(CC(CC[Rh](c1ccncc1)Cl)(C)C)C

> <NMREDATA_ASSIGNMENT>
Rh7, 2051.00, 7

> <NMREDATA_1D_103Rh>
2051.00, L=Rh7

$$$$

  ACD/LABS02122410472D

 20 20  0  0  0  0  0  0  0  0  2 V2000
   14.3310   -7.4730    0.0000 C    0  0  0  0  0  0  0  0  0  0  0  0
   14.9960   -8.6249    0.0000 C    0  0  0  0  0  0  0  0  0  0  0  0
   13.0010   -7.4730    0.0000 C    0  0  0  0  0  0  0  0  0  0  0  0
   14.3310   -9.7767    0.0000 C    0  0  0  0  0  0  0  0  0  0  0  0
   12.3360   -8.6249    0.0000 C    0  0  0  0  0  0  0  0  0  0  0  0
   13.0010   -9.7767    0.0000 N    0  0  0  0  0  0  0  0  0  0  0  0
   15.6610   -5.1694    0.0000 Rh   0  0  0  0  0  0  0  0  0  0  0  0
   14.9960   -4.0176    0.0000 Cl   0  0  0  0  0  0  0  0  0  0  0  0
   16.9910   -5.1694    0.0000 C    0  0  0  0  0  0  0  0  0  0  0  0
   17.6560   -6.3212    0.0000 C    0  5  0  0  0  0  0  0  0  0  0  0
   18.9860   -6.3212    0.0000 C    0  0  0  0  0  0  0  0  0  0  0  0
   18.9860   -4.9912    0.0000 C    0  0  0  0  0  0  0  0  0  0  0  0
   18.9860   -7.6512    0.0000 C    0  0  0  0  0  0  0  0  0  0  0  0
   20.3160   -6.3212    0.0000 C    0  0  0  0  0  0  0  0  0  0  0  0
   20.9810   -7.4730    0.0000 N    0  0  0  0  0  0  0  0  0  0  0  0
   22.3110   -7.4730    0.0000 C    0  0  0  0  0  0  0  0  0  0  0  0
   20.3160   -8.6249    0.0000 C    0  0  0  0  0  0  0  0  0  0  0  0
   14.9960   -6.3212    0.0000 N    0  3  0  0  0  0  0  0  0  0  0  0
   13.8441   -5.6562    0.0000 C    0  0  0  0  0  0  0  0  0  0  0  0
   16.1478   -6.9862    0.0000 C    0  0  0  0  0  0  0  0  0  0  0  0
  1  2  1  0  0  0  0
  1  3  2  0  0  0  0
  2  4  2  0  0  0  0
  3  5  1  0  0  0  0
  4  6  1  0  0  0  0
  5  6  2  0  0  0  0
  7  8  1  0  0  0  0
  7  9  1  0  0  0  0
  9 10  1  0  0  0  0
 10 11  1  0  0  0  0
 11 12  1  0  0  0  0
 11 13  1  0  0  0  0
 11 14  1  0  0  0  0
 14 15  1  0  0  0  0
 15 16  1  0  0  0  0
 15 17  1  0  0  0  0
  7 18  1  0  0  0  0
 18 19  1  0  0  0  0
 18 20  1  0  0  0  0
  1 18  1  0  0  0  0
M  END
> <NMREDATA_VERSION>
1.1

> <NMREDATA_LEVEL>
0

> <NMREDATA_SOLVENT>
CD2Cl2

> <NMREDATA_TEMPERATURE>
298

> <NMREDATA_FORMULA>
C15H29ClN3Rh

> <NMREDATA_SMILES>
CN(CC(CC[Rh](N(c1ccncc1)(C)C)Cl)(C)C)C

> <NMREDATA_ASSIGNMENT>
Rh7, 2095.00, 7

> <NMREDATA_1D_103Rh>
2095.00, L=Rh7

$$$$

  ACD/LABS02122410552D

 28 29  0  0  0  0  0  0  0  0  1 V2000
   16.6040  -13.5747    0.0000 Rh   0  0  0  0  0  0  0  0  0  0  0  0
   17.7920  -11.8943    0.0000 La   0  0  0  0  0  0  0  0  0  0  0  0
   14.5725  -13.6477    0.0000 C    0  0  0  0  0  0  0  0  0  0  0  0
   13.3506  -11.9817    0.0000 C    0  0  0  0  0  0  0  0  0  0  0  0
   19.8346  -12.0245    0.0000 O    0  0  0  0  0  0  0  0  0  0  0  0
   21.0659  -13.6599    0.0000 Si   0  0  0  0  0  0  0  0  0  0  0  0
   22.7746  -12.4465    0.0000 C    0  0  0  0  0  0  0  0  0  0  0  0
   19.2834  -14.6521    0.0000 C    0  0  0  0  0  0  0  0  0  0  0  0
   22.0491  -15.5141    0.0000 N    0  0  0  0  0  0  0  0  0  0  0  0
   20.9543  -17.2749    0.0000 C    0  0  0  0  0  0  0  0  0  0  0  0
   18.8981  -17.4126    0.0000 C    0  0  0  0  0  0  0  0  0  0  0  0
   21.9971  -19.0812    0.0000 C    0  0  0  0  0  0  0  0  0  0  0  0
   17.8425  -19.1650    0.0000 C    0  0  0  0  0  0  0  0  0  0  0  0
   20.9788  -20.8778    0.0000 C    0  0  0  0  0  0  0  0  0  0  0  0
   18.9133  -20.9588    0.0000 N    0  0  0  0  0  0  0  0  0  0  0  0
   24.1177  -15.6473    0.0000 C    0  0  0  0  0  0  0  0  0  0  0  0
   16.7749  -10.0875    0.0000 O    0  0  0  0  0  0  0  0  0  0  0  0
   17.7137   -8.2216    0.0000 Si   0  0  0  0  0  0  0  0  0  0  0  0
   19.4600   -9.2464    0.0000 C    0  0  0  0  0  0  0  0  0  0  0  0
   15.8301   -7.2850    0.0000 C    0  0  0  0  0  0  0  0  0  0  0  0
   18.8836   -6.4662    0.0000 N    0  0  0  0  0  0  0  0  0  0  0  0
   20.9735   -6.4727    0.0000 C    0  0  0  0  0  0  0  0  0  0  0  0
   22.0205   -4.6820    0.0000 C    0  0  0  0  0  0  0  0  0  0  0  0
   22.0927   -8.2116    0.0000 C    0  0  0  0  0  0  0  0  0  0  0  0
   24.0880   -4.6809    0.0000 C    0  0  0  0  0  0  0  0  0  0  0  0
   24.1405   -8.2496    0.0000 C    0  0  0  0  0  0  0  0  0  0  0  0
   25.1744   -6.4378    0.0000 N    0  0  0  0  0  0  0  0  0  0  0  0
   17.9721   -4.5975    0.0000 C    0  0  0  0  0  0  0  0  0  0  0  0
  1  2  1  0  0  0  0
  1  3  2  0  0  0  0
  3  4  1  0  0  0  0
  2  5  1  0  0  0  0
  6  7  1  0  0  0  0
  6  8  1  0  0  0  0
  6  9  1  0  0  0  0
 10 11  1  0  0  0  0
 10 12  2  0  0  0  0
 11 13  2  0  0  0  0
 12 14  1  0  0  0  0
 13 15  1  0  0  0  0
 14 15  2  0  0  0  0
  9 10  1  0  0  0  0
  9 16  1  0  0  0  0
  5  6  1  0  0  0  0
  2 17  1  0  0  0  0
 18 19  1  0  0  0  0
 18 20  1  0  0  0  0
 18 21  1  0  0  0  0
 22 23  1  0  0  0  0
 22 24  2  0  0  0  0
 23 25  2  0  0  0  0
 24 26  1  0  0  0  0
 25 27  1  0  0  0  0
 26 27  2  0  0  0  0
 21 22  1  0  0  0  0
 21 28  1  0  0  0  0
 17 18  1  0  0  0  0
M  END
> <NMREDATA_VERSION>
1.1

> <NMREDATA_LEVEL>
0

> <NMREDATA_SOLVENT>
C6D6

> <NMREDATA_TEMPERATURE>
297

> <NMREDATA_FORMULA>
C18H30LaN4O2RhSi2

> <NMREDATA_SMILES>
C/C=[Rh]\[La](O[Si](N(c1ccncc1)C)(C)C)O[Si](N(c1ccncc1)C)(C)C

> <NMREDATA_ASSIGNMENT>
Rh1, 2152.00, 1

> <NMREDATA_1D_103Rh>
2152.00, L=Rh1

$$$$

  ACD/LABS02122410572D

 11 10  0  0  0  0  0  0  0  0  1 V2000
   22.2274  -11.8979    0.0000 Rh   0  0  0  0  0  0  0  0  0  0  0  0
   24.0315  -10.8563    0.0000 C    0  0  0  0  0  0  0  0  0  0  0  0
   25.8355  -11.8979    0.0000 C    0  0  0  0  0  0  0  0  0  0  0  0
   27.6396  -10.8563    0.0000 C    0  0  0  0  0  0  0  0  0  0  0  0
   29.4436  -11.8979    0.0000 C    0  0  0  0  0  0  0  0  0  0  0  0
   24.0315   -8.7732    0.0000 O    0  0  0  0  0  0  0  0  0  0  0  0
   27.6396   -8.7732    0.0000 O    0  0  0  0  0  0  0  0  0  0  0  0
   20.4234  -10.8563    0.0000 C    0  0  0  0  0  0  0  0  0  0  0  0
   22.2274  -13.9810    0.0000 C    0  0  0  0  0  0  0  0  0  0  0  0
   20.4234  -15.0226    0.0000 C    0  0  0  0  0  0  0  0  0  0  0  0
   20.4234   -8.7732    0.0000 C    0  0  0  0  0  0  0  0  0  0  0  0
  1  2  1  0  0  0  0
  2  3  1  0  0  0  0
  3  4  1  0  0  0  0
  4  5  1  0  0  0  0
  2  6  2  0  0  0  0
  4  7  2  0  0  0  0
  1  8  2  0  0  0  0
  1  9  2  0  0  0  0
  9 10  1  0  0  0  0
  8 11  1  0  0  0  0
M  END
> <NMREDATA_VERSION>
1.1

> <NMREDATA_LEVEL>
0

> <NMREDATA_SOLVENT>
CD2Cl2

> <NMREDATA_TEMPERATURE>
300

> <NMREDATA_FORMULA>
C8H13O2Rh

> <NMREDATA_SMILES>
C/C=[Rh](=C\C)/C(=O)CC(=O)C

> <NMREDATA_ASSIGNMENT>
Rh1, 1184.00, 1

> <NMREDATA_1D_103Rh>
1184.00, L=Rh1

$$$$

  ACD/LABS02122410572D

 11 10  0  0  0  0  0  0  0  0  1 V2000
   22.2274  -11.8979    0.0000 Rh   0  0  0  0  0  0  0  0  0  0  0  0
   24.0315  -10.8563    0.0000 C    0  0  0  0  0  0  0  0  0  0  0  0
   25.8355  -11.8979    0.0000 C    0  0  0  0  0  0  0  0  0  0  0  0
   27.6396  -10.8563    0.0000 C    0  0  0  0  0  0  0  0  0  0  0  0
   29.4436  -11.8979    0.0000 C    0  0  0  0  0  0  0  0  0  0  0  0
   24.0315   -8.7732    0.0000 O    0  0  0  0  0  0  0  0  0  0  0  0
   27.6396   -8.7732    0.0000 O    0  0  0  0  0  0  0  0  0  0  0  0
   20.4234  -10.8563    0.0000 C    0  0  0  0  0  0  0  0  0  0  0  0
   22.2274  -13.9810    0.0000 C    0  0  0  0  0  0  0  0  0  0  0  0
   20.4234  -15.0226    0.0000 C    0  0  0  0  0  0  0  0  0  0  0  0
   20.4234   -8.7732    0.0000 C    0  0  0  0  0  0  0  0  0  0  0  0
  1  2  1  0  0  0  0
  2  3  1  0  0  0  0
  3  4  1  0  0  0  0
  4  5  1  0  0  0  0
  2  6  2  0  0  0  0
  4  7  2  0  0  0  0
  1  8  2  0  0  0  0
  1  9  2  0  0  0  0
  9 10  1  0  0  0  0
  8 11  1  0  0  0  0
M  END
> <NMREDATA_VERSION>
1.1

> <NMREDATA_LEVEL>
0

> <NMREDATA_SOLVENT>
CD2Cl2

> <NMREDATA_TEMPERATURE>
298

> <NMREDATA_FORMULA>
C8H13O2Rh

> <NMREDATA_SMILES>
C/C=[Rh](=C\C)/C(=O)CC(=O)C

> <NMREDATA_ASSIGNMENT>
Rh1, 1180.70, 1

> <NMREDATA_1D_103Rh>
1180.70, L=Rh1

$$$$

  ACD/LABS02122410572D

 11 10  0  0  0  0  0  0  0  0  1 V2000
   22.2274  -11.8979    0.0000 Rh   0  0  0  0  0  0  0  0  0  0  0  0
   24.0315  -10.8563    0.0000 C    0  0  0  0  0  0  0  0  0  0  0  0
   25.8355  -11.8979    0.0000 C    0  0  0  0  0  0  0  0  0  0  0  0
   27.6396  -10.8563    0.0000 C    0  0  0  0  0  0  0  0  0  0  0  0
   29.4436  -11.8979    0.0000 C    0  0  0  0  0  0  0  0  0  0  0  0
   24.0315   -8.7732    0.0000 O    0  0  0  0  0  0  0  0  0  0  0  0
   27.6396   -8.7732    0.0000 O    0  0  0  0  0  0  0  0  0  0  0  0
   20.4234  -10.8563    0.0000 C    0  0  0  0  0  0  0  0  0  0  0  0
   22.2274  -13.9810    0.0000 C    0  0  0  0  0  0  0  0  0  0  0  0
   20.4234  -15.0226    0.0000 C    0  0  0  0  0  0  0  0  0  0  0  0
   20.4234   -8.7732    0.0000 C    0  0  0  0  0  0  0  0  0  0  0  0
  1  2  1  0  0  0  0
  2  3  1  0  0  0  0
  3  4  1  0  0  0  0
  4  5  1  0  0  0  0
  2  6  2  0  0  0  0
  4  7  2  0  0  0  0
  1  8  2  0  0  0  0
  1  9  2  0  0  0  0
  9 10  1  0  0  0  0
  8 11  1  0  0  0  0
M  END
> <NMREDATA_VERSION>
1.1

> <NMREDATA_LEVEL>
0

> <NMREDATA_SOLVENT>
DCCl3

> <NMREDATA_TEMPERATURE>
298

> <NMREDATA_FORMULA>
C8H13O2Rh

> <NMREDATA_SMILES>
C/C=[Rh](=C\C)/C(=O)CC(=O)C

> <NMREDATA_ASSIGNMENT>
Rh1, 1180.30, 1

> <NMREDATA_1D_103Rh>
1180.30, L=Rh1

$$$$

  ACD/LABS02122410572D

 11 10  0  0  0  0  0  0  0  0  1 V2000
   22.2274  -11.8979    0.0000 Rh   0  0  0  0  0  0  0  0  0  0  0  0
   24.0315  -10.8563    0.0000 C    0  0  0  0  0  0  0  0  0  0  0  0
   25.8355  -11.8979    0.0000 C    0  0  0  0  0  0  0  0  0  0  0  0
   27.6396  -10.8563    0.0000 C    0  0  0  0  0  0  0  0  0  0  0  0
   29.4436  -11.8979    0.0000 C    0  0  0  0  0  0  0  0  0  0  0  0
   24.0315   -8.7732    0.0000 O    0  0  0  0  0  0  0  0  0  0  0  0
   27.6396   -8.7732    0.0000 O    0  0  0  0  0  0  0  0  0  0  0  0
   20.4234  -10.8563    0.0000 C    0  0  0  0  0  0  0  0  0  0  0  0
   22.2274  -13.9810    0.0000 C    0  0  0  0  0  0  0  0  0  0  0  0
   20.4234  -15.0226    0.0000 C    0  0  0  0  0  0  0  0  0  0  0  0
   20.4234   -8.7732    0.0000 C    0  0  0  0  0  0  0  0  0  0  0  0
  1  2  1  0  0  0  0
  2  3  1  0  0  0  0
  3  4  1  0  0  0  0
  4  5  1  0  0  0  0
  2  6  2  0  0  0  0
  4  7  2  0  0  0  0
  1  8  2  0  0  0  0
  1  9  2  0  0  0  0
  9 10  1  0  0  0  0
  8 11  1  0  0  0  0
M  END
> <NMREDATA_VERSION>
1.1

> <NMREDATA_LEVEL>
0

> <NMREDATA_SOLVENT>
THF

> <NMREDATA_TEMPERATURE>
298

> <NMREDATA_FORMULA>
C8H13O2Rh

> <NMREDATA_SMILES>
C/C=[Rh](=C\C)/C(=O)CC(=O)C

> <NMREDATA_ASSIGNMENT>
Rh1, 1178.30, 1

> <NMREDATA_1D_103Rh>
1178.30, L=Rh1

$$$$

  ACD/LABS02122410572D

 11 10  0  0  0  0  0  0  0  0  1 V2000
   22.2274  -11.8979    0.0000 Rh   0  0  0  0  0  0  0  0  0  0  0  0
   24.0315  -10.8563    0.0000 C    0  0  0  0  0  0  0  0  0  0  0  0
   25.8355  -11.8979    0.0000 C    0  0  0  0  0  0  0  0  0  0  0  0
   27.6396  -10.8563    0.0000 C    0  0  0  0  0  0  0  0  0  0  0  0
   29.4436  -11.8979    0.0000 C    0  0  0  0  0  0  0  0  0  0  0  0
   24.0315   -8.7732    0.0000 O    0  0  0  0  0  0  0  0  0  0  0  0
   27.6396   -8.7732    0.0000 O    0  0  0  0  0  0  0  0  0  0  0  0
   20.4234  -10.8563    0.0000 C    0  0  0  0  0  0  0  0  0  0  0  0
   22.2274  -13.9810    0.0000 C    0  0  0  0  0  0  0  0  0  0  0  0
   20.4234  -15.0226    0.0000 C    0  0  0  0  0  0  0  0  0  0  0  0
   20.4234   -8.7732    0.0000 C    0  0  0  0  0  0  0  0  0  0  0  0
  1  2  1  0  0  0  0
  2  3  1  0  0  0  0
  3  4  1  0  0  0  0
  4  5  1  0  0  0  0
  2  6  2  0  0  0  0
  4  7  2  0  0  0  0
  1  8  2  0  0  0  0
  1  9  2  0  0  0  0
  9 10  1  0  0  0  0
  8 11  1  0  0  0  0
M  END
> <NMREDATA_VERSION>
1.1

> <NMREDATA_LEVEL>
0

> <NMREDATA_SOLVENT>
CD3CN

> <NMREDATA_TEMPERATURE>
298

> <NMREDATA_FORMULA>
C8H13O2Rh

> <NMREDATA_SMILES>
C/C=[Rh](=C\C)/C(=O)CC(=O)C

> <NMREDATA_ASSIGNMENT>
Rh1, 1171.70, 1

> <NMREDATA_1D_103Rh>
1171.70, L=Rh1

$$$$

  ACD/LABS02122410572D

 11 10  0  0  0  0  0  0  0  0  1 V2000
   22.2274  -11.8979    0.0000 Rh   0  0  0  0  0  0  0  0  0  0  0  0
   24.0315  -10.8563    0.0000 C    0  0  0  0  0  0  0  0  0  0  0  0
   25.8355  -11.8979    0.0000 C    0  0  0  0  0  0  0  0  0  0  0  0
   27.6396  -10.8563    0.0000 C    0  0  0  0  0  0  0  0  0  0  0  0
   29.4436  -11.8979    0.0000 C    0  0  0  0  0  0  0  0  0  0  0  0
   24.0315   -8.7732    0.0000 O    0  0  0  0  0  0  0  0  0  0  0  0
   27.6396   -8.7732    0.0000 O    0  0  0  0  0  0  0  0  0  0  0  0
   20.4234  -10.8563    0.0000 C    0  0  0  0  0  0  0  0  0  0  0  0
   22.2274  -13.9810    0.0000 C    0  0  0  0  0  0  0  0  0  0  0  0
   20.4234  -15.0226    0.0000 C    0  0  0  0  0  0  0  0  0  0  0  0
   20.4234   -8.7732    0.0000 C    0  0  0  0  0  0  0  0  0  0  0  0
  1  2  1  0  0  0  0
  2  3  1  0  0  0  0
  3  4  1  0  0  0  0
  4  5  1  0  0  0  0
  2  6  2  0  0  0  0
  4  7  2  0  0  0  0
  1  8  2  0  0  0  0
  1  9  2  0  0  0  0
  9 10  1  0  0  0  0
  8 11  1  0  0  0  0
M  END
> <NMREDATA_VERSION>
1.1

> <NMREDATA_LEVEL>
0

> <NMREDATA_SOLVENT>
CD3OD

> <NMREDATA_TEMPERATURE>
298

> <NMREDATA_FORMULA>
C8H13O2Rh

> <NMREDATA_SMILES>
C/C=[Rh](=C\C)/C(=O)CC(=O)C

> <NMREDATA_ASSIGNMENT>
Rh1, 1167.20, 1

> <NMREDATA_1D_103Rh>
1167.20, L=Rh1

$$$$

  ACD/LABS02122410582D

 11 10  0  0  0  0  0  0  0  0  1 V2000
   22.2274  -11.8979    0.0000 Rh   0  0  0  0  0  0  0  0  0  0  0  0
   24.0315  -10.8563    0.0000 C    0  0  0  0  0  0  0  0  0  0  0  0
   25.8355  -11.8979    0.0000 C    0  0  0  0  0  0  0  0  0  0  0  0
   27.6396  -10.8563    0.0000 C    0  0  0  0  0  0  0  0  0  0  0  0
   29.4436  -11.8979    0.0000 C    0  0  0  0  0  0  0  0  0  0  0  0
   24.0315   -8.7732    0.0000 O    0  0  0  0  0  0  0  0  0  0  0  0
   27.6396   -8.7732    0.0000 O    0  0  0  0  0  0  0  0  0  0  0  0
   20.4234  -10.8563    0.0000 C    0  0  0  0  0  0  0  0  0  0  0  0
   22.2274  -13.9810    0.0000 C    0  0  0  0  0  0  0  0  0  0  0  0
   20.4234  -15.0226    0.0000 C    0  0  0  0  0  0  0  0  0  0  0  0
   20.4234   -8.7732    0.0000 C    0  0  0  0  0  0  0  0  0  0  0  0
  1  2  1  0  0  0  0
  2  3  1  0  0  0  0
  3  4  1  0  0  0  0
  4  5  1  0  0  0  0
  2  6  2  0  0  0  0
  4  7  2  0  0  0  0
  1  8  2  0  0  0  0
  1  9  2  0  0  0  0
  9 10  1  0  0  0  0
  8 11  1  0  0  0  0
M  END
> <NMREDATA_VERSION>
1.1

> <NMREDATA_LEVEL>
0

> <NMREDATA_SOLVENT>
DCCl3

> <NMREDATA_TEMPERATURE>
270

> <NMREDATA_FORMULA>
C8H13O2Rh

> <NMREDATA_SMILES>
C/C=[Rh](=C\C)/C(=O)CC(=O)C

> <NMREDATA_ASSIGNMENT>
Rh1, 1170.00, 1

> <NMREDATA_1D_103Rh>
1170.00, L=Rh1

$$$$

  ACD/LABS02122411002D

 12 12  0  0  0  0  0  0  0  0  1 V2000
   22.0821  -13.5417    0.0000 Rh   0  0  0  0  0  0  0  0  0  0  0  0
   22.6274  -11.5455    0.0000 C    0  0  0  0  0  0  0  0  0  0  0  0
   24.6278  -11.0154    0.0000 C    0  0  0  0  0  0  0  0  0  0  0  0
   25.1661   -9.0065    0.0000 C    0  0  0  0  0  0  0  0  0  0  0  0
   23.6916   -7.5348    0.0000 C    0  0  0  0  0  0  0  0  0  0  0  0
   21.1532  -10.0737    0.0000 O    0  0  0  0  0  0  0  0  0  0  0  0
   27.1788   -8.4692    0.0000 O    0  0  0  0  0  0  0  0  0  0  0  0
   24.0907  -14.0802    0.0000 C    0  0  0  0  0  0  0  0  0  0  0  0
   24.6283  -16.0927    0.0000 C    0  0  0  0  0  0  0  0  0  0  0  0
   21.5438  -15.5506    0.0000 C    0  0  0  0  0  0  0  0  0  0  0  0
   19.5228  -15.0193    0.0000 C    0  0  0  0  0  0  0  0  0  0  0  0
   20.0804  -13.0160    0.0000 C    0  0  0  0  0  0  0  0  0  0  0  0
  1  2  1  0  0  0  0
  2  3  1  0  0  0  0
  3  4  1  0  0  0  0
  4  5  1  0  0  0  0
  2  6  2  0  0  0  0
  4  7  2  0  0  0  0
  1  8  2  0  0  0  0
  8  9  1  0  0  0  0
 10 11  1  0  0  0  0
  1 10  1  0  0  0  0
 11 12  1  0  0  0  0
 12  1  1  0  0  0  0
M  END
> <NMREDATA_VERSION>
1.1

> <NMREDATA_LEVEL>
0

> <NMREDATA_SOLVENT>
DCCl3

> <NMREDATA_TEMPERATURE>
270

> <NMREDATA_FORMULA>
C9H15O2Rh

> <NMREDATA_SMILES>
CC=[Rh]1(CCC1)C(=O)CC(=O)C

> <NMREDATA_ASSIGNMENT>
Rh1, 1262.00, 1

> <NMREDATA_1D_103Rh>
1262.00, L=Rh1

$$$$

  ACD/LABS02122411002D

 13 14  0  0  0  0  0  0  0  0  1 V2000
   20.5436  -13.3214    0.0000 Rh   0  0  0  0  0  0  0  0  0  0  0  0
   25.0047  -12.5432    0.0000 C    0  0  0  0  0  0  0  0  0  0  0  0
   25.7135  -10.5976    0.0000 C    0  0  0  0  0  0  0  0  0  0  0  0
   27.7701  -10.2366    0.0000 C    0  0  0  0  0  0  0  0  0  0  0  0
   29.1043  -11.8344    0.0000 C    0  0  0  0  0  0  0  0  0  0  0  0
   26.3389  -14.1417    0.0000 O    0  0  0  0  0  0  0  0  0  0  0  0
   28.4930   -8.2907    0.0000 O    0  0  0  0  0  0  0  0  0  0  0  0
   22.0166  -11.8484    0.0000 C    0  0  0  0  0  0  0  0  0  0  0  0
   23.4756  -13.3214    0.0000 C    0  0  0  0  0  0  0  0  0  0  0  0
   22.0166  -14.7947    0.0000 C    0  0  0  0  0  0  0  0  0  0  0  0
   19.0702  -14.7947    0.0000 C    0  0  0  0  0  0  0  0  0  0  0  0
   17.5972  -13.3214    0.0000 C    0  0  0  0  0  0  0  0  0  0  0  0
   19.0702  -11.8484    0.0000 C    0  0  0  0  0  0  0  0  0  0  0  0
  1  2  1  0  0  0  0
  2  3  1  0  0  0  0
  3  4  1  0  0  0  0
  4  5  1  0  0  0  0
  2  6  2  0  0  0  0
  4  7  2  0  0  0  0
  8  9  1  0  0  0  0
  1  8  1  0  0  0  0
  9 10  1  0  0  0  0
 10  1  1  0  0  0  0
  1 11  1  0  0  0  0
 11 12  1  0  0  0  0
 12 13  1  0  0  0  0
 13  1  1  0  0  0  0
M  END
> <NMREDATA_VERSION>
1.1

> <NMREDATA_LEVEL>
0

> <NMREDATA_SOLVENT>
DCCl3

> <NMREDATA_TEMPERATURE>
270

> <NMREDATA_FORMULA>
C10H17O2Rh

> <NMREDATA_SMILES>
O=C([Rh]12(CCC1)CCC2)CC(=O)C

> <NMREDATA_ASSIGNMENT>
Rh1, 1366.00, 1

> <NMREDATA_1D_103Rh>
1366.00, L=Rh1

$$$$

  ACD/LABS02122411012D

 13 14  0  0  0  0  0  0  0  0  1 V2000
   20.5436  -13.3214    0.0000 Rh   0  0  0  0  0  0  0  0  0  0  0  0
   25.0047  -12.5432    0.0000 C    0  0  0  0  0  0  0  0  0  0  0  0
   25.7135  -10.5976    0.0000 C    0  0  0  0  0  0  0  0  0  0  0  0
   27.7701  -10.2366    0.0000 C    0  0  0  0  0  0  0  0  0  0  0  0
   29.1043  -11.8344    0.0000 C    0  0  0  0  0  0  0  0  0  0  0  0
   26.3389  -14.1417    0.0000 O    0  0  0  0  0  0  0  0  0  0  0  0
   28.4930   -8.2907    0.0000 O    0  0  0  0  0  0  0  0  0  0  0  0
   22.0166  -11.8484    0.0000 C    0  0  0  0  0  0  0  0  0  0  0  0
   23.4756  -13.3214    0.0000 C    0  0  0  0  0  0  0  0  0  0  0  0
   22.0166  -14.7947    0.0000 C    0  0  0  0  0  0  0  0  0  0  0  0
   19.0702  -14.7947    0.0000 C    0  0  0  0  0  0  0  0  0  0  0  0
   17.5972  -13.3214    0.0000 C    0  0  0  0  0  0  0  0  0  0  0  0
   19.0702  -11.8484    0.0000 C    0  0  0  0  0  0  0  0  0  0  0  0
  1  2  1  0  0  0  0
  2  3  1  0  0  0  0
  3  4  1  0  0  0  0
  4  5  1  0  0  0  0
  2  6  2  0  0  0  0
  4  7  2  0  0  0  0
  8  9  1  0  0  0  0
  1  8  1  0  0  0  0
  9 10  1  0  0  0  0
 10  1  1  0  0  0  0
  1 11  1  0  0  0  0
 11 12  1  0  0  0  0
 12 13  1  0  0  0  0
 13  1  1  0  0  0  0
M  END
> <NMREDATA_VERSION>
1.1

> <NMREDATA_LEVEL>
0

> <NMREDATA_SOLVENT>
DCCl3

> <NMREDATA_TEMPERATURE>
270

> <NMREDATA_FORMULA>
C10H17O2Rh

> <NMREDATA_SMILES>
O=C([Rh]12(CCC1)CCC2)CC(=O)C

> <NMREDATA_ASSIGNMENT>
Rh1, 1315.00, 1

> <NMREDATA_1D_103Rh>
1315.00, L=Rh1

$$$$

  ACD/LABS02122411112D

 14 13  0  0  0  0  0  0  0  0  1 V2000
   19.0068   -6.6366    0.0000 Rh   0  0  0  0  0  0  0  0  0  0  0  0
   21.8571   -6.1394    0.0000 C    0  0  0  0  0  0  0  0  0  0  0  0
   22.3100   -4.8963    0.0000 C    0  0  0  0  0  0  0  0  0  0  0  0
   23.6241   -4.6657    0.0000 C    0  0  0  0  0  0  0  0  0  0  0  0
   24.4765   -5.6866    0.0000 C    0  0  0  0  0  0  0  0  0  0  0  0
   22.7096   -7.1608    0.0000 O    0  0  0  0  0  0  0  0  0  0  0  0
   24.0859   -3.4224    0.0000 O    0  0  0  0  0  0  0  0  0  0  0  0
   19.1395   -5.4968    0.0000 C    0  0  0  0  0  0  0  0  0  0  0  0
   19.5490   -4.8825    0.0000 C    0  0  0  0  0  0  0  0  0  0  0  0
   17.9620   -7.6161    0.0000 C    0  0  0  0  0  0  0  0  0  0  0  0
   16.0680   -7.5444    0.0000 C    0  0  0  0  0  0  0  0  0  0  0  0
   18.7299   -8.2611    0.0000 C    0  0  0  0  0  0  0  0  0  0  0  0
   15.3001   -8.4147    0.0000 C    0  0  0  0  0  0  0  0  0  0  0  0
   15.7403   -6.7561    0.0000 H    0  0  0  0  0  0  0  0  0  0  0  0
  1  2  1  0  0  0  0
  2  3  1  0  0  0  0
  3  4  1  0  0  0  0
  4  5  1  0  0  0  0
  2  6  2  0  0  0  0
  4  7  2  0  0  0  0
  1  8  2  0  0  0  0
  8  9  1  0  0  0  0
  1 10  1  0  0  0  0
 10 11  2  0  0  0  0
 10 12  1  0  0  0  0
 11 13  1  0  0  0  0
 11 14  1  0  0  0  0
M  END
> <NMREDATA_VERSION>
1.1

> <NMREDATA_LEVEL>
0

> <NMREDATA_SOLVENT>
DCCl3

> <NMREDATA_TEMPERATURE>
270

> <NMREDATA_FORMULA>
C10H16O2Rh

> <NMREDATA_SMILES>
C/C=C(/[Rh](=C/C)/C(=O)CC(=O)C)\C

> <NMREDATA_ASSIGNMENT>
Rh1, 1353.00, 1

> <NMREDATA_1D_103Rh>
1353.00, L=Rh1

$$$$

  ACD/LABS02122411132D

 17 16  0  0  0  0  0  0  0  0  2 V2000
   19.0068   -6.6366    0.0000 Rh   0  3  0  0  0  0  0  0  0  0  0  0
   21.8571   -6.1394    0.0000 C    0  0  0  0  0  0  0  0  0  0  0  0
   22.3100   -4.8963    0.0000 C    0  0  0  0  0  0  0  0  0  0  0  0
   23.6241   -4.6657    0.0000 C    0  0  0  0  0  0  0  0  0  0  0  0
   24.4765   -5.6866    0.0000 C    0  0  0  0  0  0  0  0  0  0  0  0
   22.7096   -7.1608    0.0000 O    0  0  0  0  0  0  0  0  0  0  0  0
   24.0859   -3.4224    0.0000 O    0  0  0  0  0  0  0  0  0  0  0  0
   17.9620   -7.6161    0.0000 C    0  0  0  0  0  0  0  0  0  0  0  0
   16.0680   -7.5444    0.0000 C    0  0  0  0  0  0  0  0  0  0  0  0
   18.7299   -8.2611    0.0000 C    0  0  0  0  0  0  0  0  0  0  0  0
   15.3001   -8.4147    0.0000 C    0  0  0  0  0  0  0  0  0  0  0  0
   15.7403   -6.7561    0.0000 H    0  0  0  0  0  0  0  0  0  0  0  0
   23.9080  -10.6881    0.0000 C    0  0  0  0  0  0  0  0  0  0  0  0
   27.8339  -10.8163    0.0000 C    0  0  0  0  0  0  0  0  0  0  0  0
   28.8915  -11.5053    0.0000 C    0  0  0  0  0  0  0  0  0  0  0  0
   23.0266  -11.8578    0.0000 C    0  0  0  0  0  0  0  0  0  0  0  0
   28.6030   -9.7427    0.0000 H    0  0  0  0  0  0  0  0  0  0  0  0
  1  2  1  0  0  0  0
  2  3  1  0  0  0  0
  3  4  1  0  0  0  0
  4  5  1  0  0  0  0
  2  6  2  0  0  0  0
  4  7  2  0  0  0  0
  1  8  1  0  0  0  0
  8  9  2  0  0  0  0
  8 10  1  0  0  0  0
  9 11  1  0  0  0  0
  9 12  1  0  0  0  0
  1 13  1  0  0  0  0
 13 14  2  0  0  0  0
 14 15  1  0  0  0  0
 13 16  1  0  0  0  0
 14 17  1  0  0  0  0
M  END
> <NMREDATA_VERSION>
1.1

> <NMREDATA_LEVEL>
0

> <NMREDATA_SOLVENT>
DCCl3

> <NMREDATA_TEMPERATURE>
270

> <NMREDATA_FORMULA>
C12H19O2Rh

> <NMREDATA_SMILES>
C/C=C(/[Rh](C(=O)CC(=O)C)/C(=C/C)/C)\C

> <NMREDATA_ASSIGNMENT>
Rh1, 1509.00, 1

> <NMREDATA_1D_103Rh>
1509.00, L=Rh1

$$$$

  ACD/LABS02122411102D

 14 13  0  0  0  0  0  0  0  0  1 V2000
   20.5436  -13.3214    0.0000 Rh   0  0  0  0  0  0  0  0  0  0  0  0
   25.0047  -12.5432    0.0000 C    0  0  0  0  0  0  0  0  0  0  0  0
   25.7135  -10.5976    0.0000 C    0  0  0  0  0  0  0  0  0  0  0  0
   27.7701  -10.2366    0.0000 C    0  0  0  0  0  0  0  0  0  0  0  0
   29.1043  -11.8344    0.0000 C    0  0  0  0  0  0  0  0  0  0  0  0
   26.3389  -14.1417    0.0000 O    0  0  0  0  0  0  0  0  0  0  0  0
   28.4930   -8.2907    0.0000 O    0  0  0  0  0  0  0  0  0  0  0  0
   20.7512  -11.5374    0.0000 C    0  0  0  0  0  0  0  0  0  0  0  0
   21.3922  -10.5759    0.0000 C    0  0  0  0  0  0  0  0  0  0  0  0
   18.9084  -14.8543    0.0000 C    0  0  0  0  0  0  0  0  0  0  0  0
   15.9440  -14.7422    0.0000 C    0  0  0  0  0  0  0  0  0  0  0  0
   19.8378  -15.9440    0.0000 C    0  0  0  0  0  0  0  0  0  0  0  0
   14.9825  -13.2199    0.0000 C    0  0  0  0  0  0  0  0  0  0  0  0
   14.9024  -15.9440    0.0000 H    0  0  0  0  0  0  0  0  0  0  0  0
  1  2  1  0  0  0  0
  2  3  1  0  0  0  0
  3  4  1  0  0  0  0
  4  5  1  0  0  0  0
  2  6  2  0  0  0  0
  4  7  2  0  0  0  0
  1  8  2  0  0  0  0
  8  9  1  0  0  0  0
  1 10  1  0  0  0  0
 10 11  2  0  0  0  0
 10 12  1  0  0  0  0
 11 13  1  0  0  0  0
 11 14  1  0  0  0  0
M  END
> <NMREDATA_VERSION>
1.1

> <NMREDATA_LEVEL>
0

> <NMREDATA_SOLVENT>
DCCl3

> <NMREDATA_TEMPERATURE>
270

> <NMREDATA_FORMULA>
C10H16O2Rh

> <NMREDATA_SMILES>
C/C=C(\[Rh](=C\C)\C(=O)CC(=O)C)/C

> <NMREDATA_ASSIGNMENT>
Rh1, 1386.00, 1

> <NMREDATA_1D_103Rh>
1386.00, L=Rh1

$$$$

  ACD/LABS02122411152D

 17 16  0  0  0  0  0  0  0  0  2 V2000
   19.0068   -6.6366    0.0000 Rh   0  3  0  0  0  0  0  0  0  0  0  0
   21.8571   -6.1394    0.0000 C    0  0  0  0  0  0  0  0  0  0  0  0
   22.3100   -4.8963    0.0000 C    0  0  0  0  0  0  0  0  0  0  0  0
   23.6241   -4.6657    0.0000 C    0  0  0  0  0  0  0  0  0  0  0  0
   24.4765   -5.6866    0.0000 C    0  0  0  0  0  0  0  0  0  0  0  0
   22.7096   -7.1608    0.0000 O    0  0  0  0  0  0  0  0  0  0  0  0
   24.0859   -3.4224    0.0000 O    0  0  0  0  0  0  0  0  0  0  0  0
   17.9620   -7.6161    0.0000 C    0  0  0  0  0  0  0  0  0  0  0  0
   16.0680   -7.5444    0.0000 C    0  0  0  0  0  0  0  0  0  0  0  0
   18.7299   -8.2611    0.0000 C    0  0  0  0  0  0  0  0  0  0  0  0
   15.3001   -8.4147    0.0000 H    0  0  0  0  0  0  0  0  0  0  0  0
   15.7403   -6.7561    0.0000 C    0  0  0  0  0  0  0  0  0  0  0  0
   23.9080  -10.6881    0.0000 C    0  0  0  0  0  0  0  0  0  0  0  0
   27.8339  -10.8163    0.0000 C    0  0  0  0  0  0  0  0  0  0  0  0
   28.8915  -11.5053    0.0000 H    0  0  0  0  0  0  0  0  0  0  0  0
   23.0266  -11.8578    0.0000 C    0  0  0  0  0  0  0  0  0  0  0  0
   28.6030   -9.7427    0.0000 C    0  0  0  0  0  0  0  0  0  0  0  0
  1  2  1  0  0  0  0
  2  3  1  0  0  0  0
  3  4  1  0  0  0  0
  4  5  1  0  0  0  0
  2  6  2  0  0  0  0
  4  7  2  0  0  0  0
  1  8  1  0  0  0  0
  8  9  2  0  0  0  0
  8 10  1  0  0  0  0
  9 11  1  0  0  0  0
  9 12  1  0  0  0  0
  1 13  1  0  0  0  0
 13 14  2  0  0  0  0
 14 15  1  0  0  0  0
 13 16  1  0  0  0  0
 14 17  1  0  0  0  0
M  END
> <NMREDATA_VERSION>
1.1

> <NMREDATA_LEVEL>
0

> <NMREDATA_SOLVENT>
DCCl3

> <NMREDATA_TEMPERATURE>
270

> <NMREDATA_FORMULA>
C12H19O2Rh

> <NMREDATA_SMILES>
C/C=C(\[Rh](C(=O)CC(=O)C)/C(=C\C)/C)/C

> <NMREDATA_ASSIGNMENT>
Rh1, 1603.00, 1

> <NMREDATA_1D_103Rh>
1603.00, L=Rh1

$$$$

  ACD/LABS02122411162D

 17 16  0  0  0  0  0  0  0  0  2 V2000
   19.0068   -6.6366    0.0000 Rh   0  3  0  0  0  0  0  0  0  0  0  0
   21.8571   -6.1394    0.0000 C    0  0  0  0  0  0  0  0  0  0  0  0
   22.3100   -4.8963    0.0000 C    0  0  0  0  0  0  0  0  0  0  0  0
   23.6241   -4.6657    0.0000 C    0  0  0  0  0  0  0  0  0  0  0  0
   24.4765   -5.6866    0.0000 C    0  0  0  0  0  0  0  0  0  0  0  0
   22.7096   -7.1608    0.0000 O    0  0  0  0  0  0  0  0  0  0  0  0
   24.0859   -3.4224    0.0000 O    0  0  0  0  0  0  0  0  0  0  0  0
   17.9620   -7.6161    0.0000 C    0  0  0  0  0  0  0  0  0  0  0  0
   16.0680   -7.5444    0.0000 C    0  0  0  0  0  0  0  0  0  0  0  0
   18.7299   -8.2611    0.0000 C    0  0  0  0  0  0  0  0  0  0  0  0
   15.3001   -8.4147    0.0000 H    0  0  0  0  0  0  0  0  0  0  0  0
   15.7403   -6.7561    0.0000 C    0  0  0  0  0  0  0  0  0  0  0  0
   23.9080  -10.6881    0.0000 C    0  0  0  0  0  0  0  0  0  0  0  0
   27.8339  -10.8163    0.0000 C    0  0  0  0  0  0  0  0  0  0  0  0
   28.8915  -11.5053    0.0000 C    0  0  0  0  0  0  0  0  0  0  0  0
   23.0266  -11.8578    0.0000 C    0  0  0  0  0  0  0  0  0  0  0  0
   28.6030   -9.7427    0.0000 H    0  0  0  0  0  0  0  0  0  0  0  0
  1  2  1  0  0  0  0
  2  3  1  0  0  0  0
  3  4  1  0  0  0  0
  4  5  1  0  0  0  0
  2  6  2  0  0  0  0
  4  7  2  0  0  0  0
  1  8  1  0  0  0  0
  8  9  2  0  0  0  0
  8 10  1  0  0  0  0
  9 11  1  0  0  0  0
  9 12  1  0  0  0  0
  1 13  1  0  0  0  0
 13 14  2  0  0  0  0
 14 15  1  0  0  0  0
 13 16  1  0  0  0  0
 14 17  1  0  0  0  0
M  END
> <NMREDATA_VERSION>
1.1

> <NMREDATA_LEVEL>
0

> <NMREDATA_SOLVENT>
DCCl3

> <NMREDATA_TEMPERATURE>
270

> <NMREDATA_FORMULA>
C12H19O2Rh

> <NMREDATA_SMILES>
C/C=C(\[Rh](C(=O)CC(=O)C)/C(=C/C)/C)/C

> <NMREDATA_ASSIGNMENT>
Rh1, 1561.00, 1

> <NMREDATA_1D_103Rh>
1561.00, L=Rh1

$$$$

  ACD/LABS02122411172D

 23 24  0  0  0  0  0  0  0  0  1 V2000
   19.0068   -6.6366    0.0000 Rh   0  0  0  0  0  0  0  0  0  0  0  0
   21.8571   -6.1394    0.0000 C    0  0  0  0  0  0  0  0  0  0  0  0
   22.3100   -4.8963    0.0000 C    0  0  0  0  0  0  0  0  0  0  0  0
   23.6241   -4.6657    0.0000 C    0  0  0  0  0  0  0  0  0  0  0  0
   24.4765   -5.6866    0.0000 C    0  0  0  0  0  0  0  0  0  0  0  0
   22.7096   -7.1608    0.0000 O    0  0  0  0  0  0  0  0  0  0  0  0
   24.0859   -3.4224    0.0000 O    0  0  0  0  0  0  0  0  0  0  0  0
   18.1538   -5.6162    0.0000 C    0  0  0  0  0  0  0  0  0  0  0  0
   16.8845   -6.0139    0.0000 C    0  0  0  0  0  0  0  0  0  0  0  0
   18.7700   -4.4376    0.0000 C    0  0  0  0  0  0  0  0  0  0  0  0
   18.3723   -3.1685    0.0000 C    0  0  0  0  0  0  0  0  0  0  0  0
   15.7060   -5.3977    0.0000 C    0  0  0  0  0  0  0  0  0  0  0  0
   17.1938   -2.5523    0.0000 C    0  0  0  0  0  0  0  0  0  0  0  0
   15.3084   -4.1284    0.0000 C    0  0  0  0  0  0  0  0  0  0  0  0
   15.9247   -2.9498    0.0000 C    0  0  0  0  0  0  0  0  0  0  0  0
   18.5496   -7.8856    0.0000 C    0  0  0  0  0  0  0  0  0  0  0  0
   19.5286   -8.7860    0.0000 C    0  0  0  0  0  0  0  0  0  0  0  0
   17.2208   -7.9412    0.0000 C    0  0  0  0  0  0  0  0  0  0  0  0
   16.3206   -8.9202    0.0000 C    0  0  0  0  0  0  0  0  0  0  0  0
   19.5842  -10.1147    0.0000 C    0  0  0  0  0  0  0  0  0  0  0  0
   16.3762  -10.2489    0.0000 C    0  0  0  0  0  0  0  0  0  0  0  0
   18.6838  -11.0937    0.0000 C    0  0  0  0  0  0  0  0  0  0  0  0
   17.3550  -11.1493    0.0000 C    0  0  0  0  0  0  0  0  0  0  0  0
  1  2  1  0  0  0  0
  2  3  1  0  0  0  0
  3  4  1  0  0  0  0
  4  5  1  0  0  0  0
  2  6  2  0  0  0  0
  4  7  2  0  0  0  0
  8  9  1  0  0  0  0
  8 10  1  0  0  0  0
  9 12  1  0  0  0  0
 10 11  1  0  0  0  0
 11 13  1  0  0  0  0
 12 14  1  0  0  0  0
 13 15  2  0  0  0  0
 14 15  1  0  0  0  0
  1  8  1  0  0  0  0
 16 17  1  0  0  0  0
 16 18  1  0  0  0  0
 17 20  1  0  0  0  0
 18 19  1  0  0  0  0
 19 21  1  0  0  0  0
 20 22  1  0  0  0  0
 21 23  2  0  0  0  0
 22 23  1  0  0  0  0
  1 16  1  0  0  0  0
M  END
> <NMREDATA_VERSION>
1.1

> <NMREDATA_LEVEL>
0

> <NMREDATA_SOLVENT>
DCCl3

> <NMREDATA_TEMPERATURE>
270

> <NMREDATA_FORMULA>
C20H31O2Rh

> <NMREDATA_SMILES>
CC(=O)CC(=O)[Rh](C1CCCC=CCC1)C1CCCC=CCC1

> <NMREDATA_ASSIGNMENT>
Rh1, 1296.00, 1

> <NMREDATA_1D_103Rh>
1296.00, L=Rh1

$$$$

  ACD/LABS02122411192D

 12 11  0  0  0  0  0  0  0  0  1 V2000
   19.9114   -6.2577    0.0000 Rh   0  0  0  0  0  0  0  0  0  0  0  0
   21.2414   -6.2577    0.0000 C    0  0  0  0  0  0  0  0  0  0  0  0
   21.9064   -5.1059    0.0000 C    0  0  0  0  0  0  0  0  0  0  0  0
   23.2364   -5.1059    0.0000 C    0  0  0  0  0  0  0  0  0  0  0  0
   23.9014   -6.2577    0.0000 C    0  0  0  0  0  0  0  0  0  0  0  0
   21.9064   -7.4095    0.0000 O    0  0  0  0  0  0  0  0  0  0  0  0
   23.9014   -3.9541    0.0000 O    0  0  0  0  0  0  0  0  0  0  0  0
   19.2464   -7.4095    0.0000 C    0  0  0  0  0  0  0  0  0  0  0  0
   17.9164   -7.4095    0.0000 C    0  0  0  0  0  0  0  0  0  0  0  0
   19.2464   -5.1059    0.0000 C    0  0  0  0  0  0  0  0  0  0  0  0
   19.9114   -3.9541    0.0000 C    0  0  0  0  0  0  0  0  0  0  0  0
   25.2314   -6.2577    0.0000 F    0  0  0  0  0  0  0  0  0  0  0  0
  1  2  1  0  0  0  0
  2  3  1  0  0  0  0
  3  4  1  0  0  0  0
  4  5  1  0  0  0  0
  2  6  2  0  0  0  0
  4  7  2  0  0  0  0
  8  9  1  0  0  0  0
  1  8  2  0  0  0  0
  1 10  2  0  0  0  0
 10 11  1  0  0  0  0
  5 12  1  0  0  0  0
M  END
> <NMREDATA_VERSION>
1.1

> <NMREDATA_LEVEL>
0

> <NMREDATA_SOLVENT>
DCCl3

> <NMREDATA_TEMPERATURE>
270

> <NMREDATA_FORMULA>
C8H12FO2Rh

> <NMREDATA_SMILES>
FCC(=O)CC(=O)/[Rh](=C/C)=C/C

> <NMREDATA_ASSIGNMENT>
Rh1, 1296.00, 1

> <NMREDATA_1D_103Rh>
1296.00, L=Rh1

$$$$

  ACD/LABS02122411212D

 18 17  0  0  0  0  0  0  0  0  1 V2000
   19.9114   -6.2577    0.0000 Rh   0  0  0  0  0  0  0  0  0  0  0  0
   21.2414   -6.2577    0.0000 C    0  0  0  0  0  0  0  0  0  0  0  0
   21.9064   -5.1059    0.0000 C    0  0  0  0  0  0  0  0  0  0  0  0
   23.2364   -5.1059    0.0000 C    0  0  0  0  0  0  0  0  0  0  0  0
   23.9014   -6.2577    0.0000 C    0  0  0  0  0  0  0  0  0  0  0  0
   21.9064   -7.4095    0.0000 O    0  0  0  0  0  0  0  0  0  0  0  0
   23.9014   -3.9541    0.0000 O    0  0  0  0  0  0  0  0  0  0  0  0
   25.2314   -6.2577    0.0000 F    0  0  0  0  0  0  0  0  0  0  0  0
   14.4537   -3.7176    0.0000 C    0  0  0  0  0  0  0  0  0  0  0  0
   13.8929   -9.4061    0.0000 C    0  0  0  0  0  0  0  0  0  0  0  0
   10.8964   -9.3421    0.0000 C    0  0  0  0  0  0  0  0  0  0  0  0
   11.9380   -3.7176    0.0000 C    0  0  0  0  0  0  0  0  0  0  0  0
   11.0086   -2.6119    0.0000 H    0  0  0  0  0  0  0  0  0  0  0  0
   11.4572   -4.8553    0.0000 C    0  0  0  0  0  0  0  0  0  0  0  0
   10.3035   -8.1723    0.0000 H    0  0  0  0  0  0  0  0  0  0  0  0
   10.0631  -10.3355    0.0000 C    0  0  0  0  0  0  0  0  0  0  0  0
   14.9024   -4.7752    0.0000 C    0  0  0  0  0  0  0  0  0  0  0  0
   15.0947  -10.5759    0.0000 C    0  0  0  0  0  0  0  0  0  0  0  0
  1  2  1  0  0  0  0
  2  3  1  0  0  0  0
  3  4  1  0  0  0  0
  4  5  1  0  0  0  0
  2  6  2  0  0  0  0
  4  7  2  0  0  0  0
  5  8  1  0  0  0  0
  1  9  1  0  0  0  0
  1 10  1  0  0  0  0
 10 11  2  0  0  0  0
  9 12  2  0  0  0  0
 12 13  1  0  0  0  0
 12 14  1  0  0  0  0
 11 15  1  0  0  0  0
 11 16  1  0  0  0  0
  9 17  1  0  0  0  0
 10 18  1  0  0  0  0
M  END
> <NMREDATA_VERSION>
1.1

> <NMREDATA_LEVEL>
0

> <NMREDATA_SOLVENT>
DCCl3

> <NMREDATA_TEMPERATURE>
270

> <NMREDATA_FORMULA>
C12H18FO2Rh

> <NMREDATA_SMILES>
C/C=C(/[Rh](C(=O)CC(=O)CF)/C(=C/C)/C)\C

> <NMREDATA_ASSIGNMENT>
Rh1, 1644.00, 1

> <NMREDATA_1D_103Rh>
1644.00, L=Rh1

$$$$

  ACD/LABS02122411212D

 18 17  0  0  0  0  0  0  0  0  1 V2000
   19.9114   -6.2577    0.0000 Rh   0  0  0  0  0  0  0  0  0  0  0  0
   21.2414   -6.2577    0.0000 C    0  0  0  0  0  0  0  0  0  0  0  0
   21.9064   -5.1059    0.0000 C    0  0  0  0  0  0  0  0  0  0  0  0
   23.2364   -5.1059    0.0000 C    0  0  0  0  0  0  0  0  0  0  0  0
   23.9014   -6.2577    0.0000 C    0  0  0  0  0  0  0  0  0  0  0  0
   21.9064   -7.4095    0.0000 O    0  0  0  0  0  0  0  0  0  0  0  0
   23.9014   -3.9541    0.0000 O    0  0  0  0  0  0  0  0  0  0  0  0
   25.2314   -6.2577    0.0000 F    0  0  0  0  0  0  0  0  0  0  0  0
   14.4537   -3.7176    0.0000 C    0  0  0  0  0  0  0  0  0  0  0  0
   13.8929   -9.4061    0.0000 C    0  0  0  0  0  0  0  0  0  0  0  0
   10.8964   -9.3421    0.0000 C    0  0  0  0  0  0  0  0  0  0  0  0
   11.9380   -3.7176    0.0000 C    0  0  0  0  0  0  0  0  0  0  0  0
   11.0086   -2.6119    0.0000 C    0  0  0  0  0  0  0  0  0  0  0  0
   11.4572   -4.8553    0.0000 H    0  0  0  0  0  0  0  0  0  0  0  0
   10.3035   -8.1723    0.0000 C    0  0  0  0  0  0  0  0  0  0  0  0
   10.0631  -10.3355    0.0000 H    0  0  0  0  0  0  0  0  0  0  0  0
   14.9024   -4.7752    0.0000 C    0  0  0  0  0  0  0  0  0  0  0  0
   15.0947  -10.5759    0.0000 C    0  0  0  0  0  0  0  0  0  0  0  0
  1  2  1  0  0  0  0
  2  3  1  0  0  0  0
  3  4  1  0  0  0  0
  4  5  1  0  0  0  0
  2  6  2  0  0  0  0
  4  7  2  0  0  0  0
  5  8  1  0  0  0  0
  1  9  1  0  0  0  0
  1 10  1  0  0  0  0
 10 11  2  0  0  0  0
  9 12  2  0  0  0  0
 12 13  1  0  0  0  0
 12 14  1  0  0  0  0
 11 15  1  0  0  0  0
 11 16  1  0  0  0  0
  9 17  1  0  0  0  0
 10 18  1  0  0  0  0
M  END
> <NMREDATA_VERSION>
1.1

> <NMREDATA_LEVEL>
0

> <NMREDATA_SOLVENT>
DCCl3

> <NMREDATA_TEMPERATURE>
270

> <NMREDATA_FORMULA>
C12H18FO2Rh

> <NMREDATA_SMILES>
C/C=C(\[Rh](C(=O)CC(=O)CF)/C(=C\C)/C)/C

> <NMREDATA_ASSIGNMENT>
Rh1, 1763.00, 1

> <NMREDATA_1D_103Rh>
1763.00, L=Rh1

$$$$

  ACD/LABS02122411222D

 18 17  0  0  0  0  0  0  0  0  1 V2000
   19.9114   -6.2577    0.0000 Rh   0  0  0  0  0  0  0  0  0  0  0  0
   21.2414   -6.2577    0.0000 C    0  0  0  0  0  0  0  0  0  0  0  0
   21.9064   -5.1059    0.0000 C    0  0  0  0  0  0  0  0  0  0  0  0
   23.2364   -5.1059    0.0000 C    0  0  0  0  0  0  0  0  0  0  0  0
   23.9014   -6.2577    0.0000 C    0  0  0  0  0  0  0  0  0  0  0  0
   21.9064   -7.4095    0.0000 O    0  0  0  0  0  0  0  0  0  0  0  0
   23.9014   -3.9541    0.0000 O    0  0  0  0  0  0  0  0  0  0  0  0
   25.2314   -6.2577    0.0000 F    0  0  0  0  0  0  0  0  0  0  0  0
   14.4537   -3.7176    0.0000 C    0  0  0  0  0  0  0  0  0  0  0  0
   13.8929   -9.4061    0.0000 C    0  0  0  0  0  0  0  0  0  0  0  0
   10.8964   -9.3421    0.0000 C    0  0  0  0  0  0  0  0  0  0  0  0
   11.9380   -3.7176    0.0000 C    0  0  0  0  0  0  0  0  0  0  0  0
   11.0086   -2.6119    0.0000 H    0  0  0  0  0  0  0  0  0  0  0  0
   11.4572   -4.8553    0.0000 C    0  0  0  0  0  0  0  0  0  0  0  0
   10.3035   -8.1723    0.0000 C    0  0  0  0  0  0  0  0  0  0  0  0
   10.0631  -10.3355    0.0000 H    0  0  0  0  0  0  0  0  0  0  0  0
   14.9024   -4.7752    0.0000 C    0  0  0  0  0  0  0  0  0  0  0  0
   15.0947  -10.5759    0.0000 C    0  0  0  0  0  0  0  0  0  0  0  0
  1  2  1  0  0  0  0
  2  3  1  0  0  0  0
  3  4  1  0  0  0  0
  4  5  1  0  0  0  0
  2  6  2  0  0  0  0
  4  7  2  0  0  0  0
  5  8  1  0  0  0  0
  1  9  1  0  0  0  0
  1 10  1  0  0  0  0
 10 11  2  0  0  0  0
  9 12  2  0  0  0  0
 12 13  1  0  0  0  0
 12 14  1  0  0  0  0
 11 15  1  0  0  0  0
 11 16  1  0  0  0  0
  9 17  1  0  0  0  0
 10 18  1  0  0  0  0
M  END
> <NMREDATA_VERSION>
1.1

> <NMREDATA_LEVEL>
0

> <NMREDATA_SOLVENT>
DCCl3

> <NMREDATA_TEMPERATURE>
270

> <NMREDATA_FORMULA>
C12H18FO2Rh

> <NMREDATA_SMILES>
C/C=C(\[Rh](C(=O)CC(=O)CF)/C(=C/C)/C)/C

> <NMREDATA_ASSIGNMENT>
Rh1, 1724.00, 1

> <NMREDATA_1D_103Rh>
1724.00, L=Rh1

$$$$

  ACD/LABS02122411322D

 20 20  0  0  0  0  0  0  0  0  1 V2000
   17.3487  -10.0672    0.0000 C    0  0  0  0  0  0  0  0  0  0  0  0
   18.3231   -9.1722    0.0000 C    0  0  0  0  0  0  0  0  0  0  0  0
   17.2865  -11.3967    0.0000 C    0  0  0  0  0  0  0  0  0  0  0  0
   18.1726  -12.3802    0.0000 C    0  0  0  0  0  0  0  0  0  0  0  0
   19.6526   -9.2341    0.0000 C    0  0  0  0  0  0  0  0  0  0  0  0
   19.5019  -12.4424    0.0000 C    0  0  0  0  0  0  0  0  0  0  0  0
   20.5476  -10.2179    0.0000 C    0  0  0  0  0  0  0  0  0  0  0  0
   20.4857  -11.5472    0.0000 C    0  0  0  0  0  0  0  0  0  0  0  0
   17.8802   -7.9317    0.0000 Rh   0  0  0  0  0  0  0  0  0  0  0  0
   19.0234   -7.2670    0.0000 C    0  0  0  0  0  0  0  0  0  0  0  0
   16.7372   -7.2670    0.0000 P    0  0  0  0  0  0  0  0  0  0  0  0
   16.0725   -8.4191    0.0000 N    0  0  0  0  0  0  0  0  0  0  0  0
   16.7372   -9.5621    0.0000 C    0  0  0  0  0  0  0  0  0  0  0  0
   14.7432   -8.4191    0.0000 C    0  0  0  0  0  0  0  0  0  0  0  0
   17.4017   -6.1149    0.0000 N    0  0  0  0  0  0  0  0  0  0  0  0
   15.5851   -6.6025    0.0000 N    0  0  0  0  0  0  0  0  0  0  0  0
   18.7221   -6.1149    0.0000 C    0  0  0  0  0  0  0  0  0  0  0  0
   16.7372   -4.9628    0.0000 C    0  0  0  0  0  0  0  0  0  0  0  0
   14.4330   -7.2670    0.0000 C    0  0  0  0  0  0  0  0  0  0  0  0
   15.5851   -5.2732    0.0000 C    0  0  0  0  0  0  0  0  0  0  0  0
  1  2  1  0  0  0  0
  1  3  1  0  0  0  0
  2  5  1  0  0  0  0
  3  4  2  0  0  0  0
  4  6  1  0  0  0  0
  5  7  2  0  0  0  0
  6  8  1  0  0  0  0
  7  8  1  0  0  0  0
  9 10  1  0  0  0  0
  2  9  1  0  0  0  0
  9 11  1  0  0  0  0
 11 12  1  0  0  0  0
 12 13  1  0  0  0  0
 12 14  1  0  0  0  0
 11 15  1  0  0  0  0
 11 16  1  0  0  0  0
 15 17  1  0  0  0  0
 15 18  1  0  0  0  0
 16 19  1  0  0  0  0
 16 20  1  0  0  0  0
M  END
> <NMREDATA_VERSION>
1.1

> <NMREDATA_LEVEL>
0

> <NMREDATA_SOLVENT>
C6D6

> <NMREDATA_TEMPERATURE>
298

> <NMREDATA_FORMULA>
C15H33N3PRh

> <NMREDATA_SMILES>
CN(P([Rh](C1C=CCCC=CC1)C)(N(C)C)N(C)C)C

> <NMREDATA_ASSIGNMENT>
Rh9, 165.00, 9

> <NMREDATA_1D_103Rh>
165.00, L=Rh9

$$$$

  ACD/LABS02122411352D

 24 24  0  0  0  0  0  0  0  0  1 V2000
   18.7980   -8.3940    0.0000 C    0  0  0  0  0  0  0  0  0  0  0  0
   17.4785   -8.5725    0.0000 C    0  0  0  0  0  0  0  0  0  0  0  0
   19.8514   -9.2083    0.0000 C    0  0  0  0  0  0  0  0  0  0  0  0
   20.0255  -10.5201    0.0000 C    0  0  0  0  0  0  0  0  0  0  0  0
   16.6719   -9.6215    0.0000 C    0  0  0  0  0  0  0  0  0  0  0  0
   19.2110  -11.5732    0.0000 C    0  0  0  0  0  0  0  0  0  0  0  0
   16.8507  -10.9408    0.0000 C    0  0  0  0  0  0  0  0  0  0  0  0
   17.8994  -11.7476    0.0000 C    0  0  0  0  0  0  0  0  0  0  0  0
   16.8140   -7.4214    0.0000 Rh   0  0  0  0  0  0  0  0  0  0  0  0
   17.4838   -6.2775    0.0000 C    0  0  0  0  0  0  0  0  0  0  0  0
   15.4960   -7.4251    0.0000 P    0  0  0  0  0  0  0  0  0  0  0  0
   15.4954   -8.7349    0.0000 C    0  0  0  0  0  0  0  0  0  0  0  0
   14.3441   -9.3997    0.0000 C    0  0  0  0  0  0  0  0  0  0  0  0
   14.3445  -10.7297    0.0000 C    0  0  0  0  0  0  0  0  0  0  0  0
   13.1932  -11.3944    0.0000 C    0  0  0  0  0  0  0  0  0  0  0  0
   15.4955   -6.0951    0.0000 C    0  0  0  0  0  0  0  0  0  0  0  0
   14.3440   -5.4297    0.0000 C    0  0  0  0  0  0  0  0  0  0  0  0
   14.3435   -4.0997    0.0000 C    0  0  0  0  0  0  0  0  0  0  0  0
   13.1919   -3.4343    0.0000 C    0  0  0  0  0  0  0  0  0  0  0  0
   14.1740   -7.4210    0.0000 C    0  0  0  0  0  0  0  0  0  0  0  0
   13.5094   -6.2699    0.0000 C    0  0  0  0  0  0  0  0  0  0  0  0
   12.1792   -6.2701    0.0000 C    0  0  0  0  0  0  0  0  0  0  0  0
   11.5146   -5.1190    0.0000 C    0  0  0  0  0  0  0  0  0  0  0  0
   10.1846   -5.1195    0.0000 C    0  0  0  0  0  0  0  0  0  0  0  0
  1  2  1  0  0  0  0
  1  3  1  0  0  0  0
  2  5  1  0  0  0  0
  3  4  2  0  0  0  0
  4  6  1  0  0  0  0
  5  7  2  0  0  0  0
  6  8  1  0  0  0  0
  7  8  1  0  0  0  0
  9 10  1  0  0  0  0
  2  9  1  0  0  0  0
  9 11  1  0  0  0  0
 11 12  1  0  0  0  0
 12 13  1  0  0  0  0
 13 14  1  0  0  0  0
 14 15  1  0  0  0  0
 11 16  1  0  0  0  0
 16 17  1  0  0  0  0
 17 18  1  0  0  0  0
 18 19  1  0  0  0  0
 11 20  1  0  0  0  0
 20 21  1  0  0  0  0
 21 22  1  0  0  0  0
 22 23  1  0  0  0  0
 23 24  1  0  0  0  0
M  END
> <NMREDATA_VERSION>
1.1

> <NMREDATA_LEVEL>
0

> <NMREDATA_SOLVENT>
C6D6

> <NMREDATA_TEMPERATURE>
298

> <NMREDATA_FORMULA>
C22H44PRh

> <NMREDATA_SMILES>
CCCCCP([Rh](C1C=CCCC=CC1)C)(CCCC)CCCC

> <NMREDATA_ASSIGNMENT>
Rh9, 73.00, 9

> <NMREDATA_1D_103Rh>
73.00, L=Rh9

$$$$

  ACD/LABS02122411372D

 20 20  0  0  0  0  0  0  0  0  1 V2000
   23.2367   -7.7210    0.0000 C    0  0  0  0  0  0  0  0  0  0  0  0
   21.9172   -7.8995    0.0000 C    0  0  0  0  0  0  0  0  0  0  0  0
   24.2901   -8.5353    0.0000 C    0  0  0  0  0  0  0  0  0  0  0  0
   24.4642   -9.8471    0.0000 C    0  0  0  0  0  0  0  0  0  0  0  0
   21.1106   -8.9485    0.0000 C    0  0  0  0  0  0  0  0  0  0  0  0
   23.6497  -10.9002    0.0000 C    0  0  0  0  0  0  0  0  0  0  0  0
   21.2894  -10.2678    0.0000 C    0  0  0  0  0  0  0  0  0  0  0  0
   22.3381  -11.0746    0.0000 C    0  0  0  0  0  0  0  0  0  0  0  0
   21.2527   -6.7484    0.0000 Rh   0  0  0  0  0  0  0  0  0  0  0  0
   21.9225   -5.6045    0.0000 C    0  0  0  0  0  0  0  0  0  0  0  0
   19.9347   -6.7521    0.0000 P    0  0  0  0  0  5  0  0  0  0  0  0
   19.9341   -8.0619    0.0000 C    0  0  0  0  0  0  0  0  0  0  0  0
   18.7828   -8.7267    0.0000 C    0  0  0  0  0  0  0  0  0  0  0  0
   18.7832  -10.0567    0.0000 C    0  0  0  0  0  0  0  0  0  0  0  0
   19.9342   -5.4221    0.0000 C    0  0  0  0  0  0  0  0  0  0  0  0
   18.7827   -4.7567    0.0000 C    0  0  0  0  0  0  0  0  0  0  0  0
   18.7822   -3.4267    0.0000 C    0  0  0  0  0  0  0  0  0  0  0  0
   18.6127   -6.7480    0.0000 C    0  0  0  0  0  0  0  0  0  0  0  0
   17.9481   -5.5969    0.0000 C    0  0  0  0  0  0  0  0  0  0  0  0
   16.6179   -5.5971    0.0000 C    0  0  0  0  0  0  0  0  0  0  0  0
  1  2  1  0  0  0  0
  1  3  1  0  0  0  0
  2  5  1  0  0  0  0
  3  4  2  0  0  0  0
  4  6  1  0  0  0  0
  5  7  2  0  0  0  0
  6  8  1  0  0  0  0
  7  8  1  0  0  0  0
  9 10  1  0  0  0  0
  2  9  1  0  0  0  0
  9 11  1  0  0  0  0
 11 12  1  0  0  0  0
 12 13  1  0  0  0  0
 13 14  1  0  0  0  0
 11 15  1  0  0  0  0
 15 16  1  0  0  0  0
 16 17  1  0  0  0  0
 11 18  1  0  0  0  0
 18 19  1  0  0  0  0
 19 20  1  0  0  0  0
M  END
> <NMREDATA_VERSION>
1.1

> <NMREDATA_LEVEL>
0

> <NMREDATA_SOLVENT>
C6D6

> <NMREDATA_TEMPERATURE>
298

> <NMREDATA_FORMULA>
C18H36PRh

> <NMREDATA_SMILES>
CCCP([Rh](C1C=CCCC=CC1)C)(CCC)CCC

> <NMREDATA_ASSIGNMENT>
Rh9, 73.00, 9

> <NMREDATA_1D_103Rh>
73.00, L=Rh9

$$$$

  ACD/LABS02122411382D

 17 17  0  0  0  0  0  0  0  0  1 V2000
   22.9002   -6.3910    0.0000 C    0  0  0  0  0  0  0  0  0  0  0  0
   21.5807   -6.5695    0.0000 C    0  0  0  0  0  0  0  0  0  0  0  0
   23.9536   -7.2053    0.0000 C    0  0  0  0  0  0  0  0  0  0  0  0
   24.1277   -8.5171    0.0000 C    0  0  0  0  0  0  0  0  0  0  0  0
   20.7741   -7.6185    0.0000 C    0  0  0  0  0  0  0  0  0  0  0  0
   23.3132   -9.5702    0.0000 C    0  0  0  0  0  0  0  0  0  0  0  0
   20.9529   -8.9378    0.0000 C    0  0  0  0  0  0  0  0  0  0  0  0
   22.0016   -9.7446    0.0000 C    0  0  0  0  0  0  0  0  0  0  0  0
   20.9162   -5.4184    0.0000 Rh   0  0  0  0  0  0  0  0  0  0  0  0
   21.5860   -4.2745    0.0000 C    0  0  0  0  0  0  0  0  0  0  0  0
   19.5982   -5.4221    0.0000 P    0  0  0  0  0  5  0  0  0  0  0  0
   19.5976   -6.7319    0.0000 C    0  0  0  0  0  0  0  0  0  0  0  0
   18.4463   -7.3967    0.0000 C    0  0  0  0  0  0  0  0  0  0  0  0
   19.5977   -4.0921    0.0000 C    0  0  0  0  0  0  0  0  0  0  0  0
   18.4462   -3.4267    0.0000 C    0  0  0  0  0  0  0  0  0  0  0  0
   18.2762   -5.4180    0.0000 C    0  0  0  0  0  0  0  0  0  0  0  0
   17.6116   -4.2669    0.0000 C    0  0  0  0  0  0  0  0  0  0  0  0
  1  2  1  0  0  0  0
  1  3  1  0  0  0  0
  2  5  1  0  0  0  0
  3  4  2  0  0  0  0
  4  6  1  0  0  0  0
  5  7  2  0  0  0  0
  6  8  1  0  0  0  0
  7  8  1  0  0  0  0
  9 10  1  0  0  0  0
  2  9  1  0  0  0  0
  9 11  1  0  0  0  0
 11 12  1  0  0  0  0
 12 13  1  0  0  0  0
 11 14  1  0  0  0  0
 14 15  1  0  0  0  0
 11 16  1  0  0  0  0
 16 17  1  0  0  0  0
M  END
> <NMREDATA_VERSION>
1.1

> <NMREDATA_LEVEL>
0

> <NMREDATA_SOLVENT>
C6D6

> <NMREDATA_TEMPERATURE>
298

> <NMREDATA_FORMULA>
C15H30PRh

> <NMREDATA_SMILES>
CCP([Rh](C1C=CCCC=CC1)C)(CC)CC

> <NMREDATA_ASSIGNMENT>
Rh9, 57.00, 9

> <NMREDATA_1D_103Rh>
57.00, L=Rh9

$$$$

  ACD/LABS02122411392D

 14 14  0  0  0  0  0  0  0  0  1 V2000
   22.2400   -5.7254    0.0000 C    0  0  0  0  0  0  0  0  0  0  0  0
   20.9218   -5.9037    0.0000 C    0  0  0  0  0  0  0  0  0  0  0  0
   23.2923   -6.5389    0.0000 C    0  0  0  0  0  0  0  0  0  0  0  0
   23.4662   -7.8494    0.0000 C    0  0  0  0  0  0  0  0  0  0  0  0
   20.1161   -6.9517    0.0000 C    0  0  0  0  0  0  0  0  0  0  0  0
   22.6526   -8.9014    0.0000 C    0  0  0  0  0  0  0  0  0  0  0  0
   20.2947   -8.2696    0.0000 C    0  0  0  0  0  0  0  0  0  0  0  0
   21.3423   -9.0756    0.0000 C    0  0  0  0  0  0  0  0  0  0  0  0
   20.2580   -4.7538    0.0000 Rh   0  0  0  0  0  0  0  0  0  0  0  0
   20.9271   -3.6111    0.0000 C    0  0  0  0  0  0  0  0  0  0  0  0
   18.9414   -4.7575    0.0000 P    0  0  0  0  0  5  0  0  0  0  0  0
   18.9408   -6.0660    0.0000 C    0  0  0  0  0  0  0  0  0  0  0  0
   18.9409   -3.4289    0.0000 C    0  0  0  0  0  0  0  0  0  0  0  0
   17.6207   -4.7534    0.0000 C    0  0  0  0  0  0  0  0  0  0  0  0
  1  2  1  0  0  0  0
  1  3  1  0  0  0  0
  2  5  1  0  0  0  0
  3  4  2  0  0  0  0
  4  6  1  0  0  0  0
  5  7  2  0  0  0  0
  6  8  1  0  0  0  0
  7  8  1  0  0  0  0
  9 10  1  0  0  0  0
  2  9  1  0  0  0  0
  9 11  1  0  0  0  0
 11 12  1  0  0  0  0
 11 13  1  0  0  0  0
 11 14  1  0  0  0  0
M  END
> <NMREDATA_VERSION>
1.1

> <NMREDATA_LEVEL>
0

> <NMREDATA_SOLVENT>
C6D6

> <NMREDATA_TEMPERATURE>
298

> <NMREDATA_FORMULA>
C12H24PRh

> <NMREDATA_SMILES>
C[Rh](P(C)(C)C)C1C=CCCC=CC1

> <NMREDATA_ASSIGNMENT>
Rh9, 23.00, 9

> <NMREDATA_1D_103Rh>
23.00, L=Rh9

$$$$

  ACD/LABS02122411402D

 17 17  0  0  0  0  0  0  0  0  1 V2000
   18.6446  -11.1952    0.0000 C    0  0  0  0  0  0  0  0  0  0  0  0
   19.3096  -10.0434    0.0000 C    0  0  0  0  0  0  0  0  0  0  0  0
   18.9888  -12.4799    0.0000 C    0  0  0  0  0  0  0  0  0  0  0  0
   20.1406  -13.1449    0.0000 C    0  0  0  0  0  0  0  0  0  0  0  0
   20.5943   -9.6992    0.0000 C    0  0  0  0  0  0  0  0  0  0  0  0
   21.4253  -12.8006    0.0000 C    0  0  0  0  0  0  0  0  0  0  0  0
   21.7461  -10.3642    0.0000 C    0  0  0  0  0  0  0  0  0  0  0  0
   22.0903  -11.6488    0.0000 C    0  0  0  0  0  0  0  0  0  0  0  0
   18.4999   -8.9882    0.0000 Rh   0  0  0  0  0  0  0  0  0  0  0  0
   19.0089   -7.7595    0.0000 C    0  0  0  0  0  0  0  0  0  0  0  0
   17.1813   -9.1618    0.0000 P    0  0  0  0  0  0  0  0  0  0  0  0
   17.0077   -7.8432    0.0000 O    0  0  0  0  0  0  0  0  0  0  0  0
   17.3549  -10.4804    0.0000 O    0  0  0  0  0  0  0  0  0  0  0  0
   15.8627   -9.3354    0.0000 O    0  0  0  0  0  0  0  0  0  0  0  0
   15.7790   -7.3342    0.0000 C    0  0  0  0  0  0  0  0  0  0  0  0
   16.2998  -11.2901    0.0000 C    0  0  0  0  0  0  0  0  0  0  0  0
   15.0531   -8.2803    0.0000 C    0  0  0  0  0  0  0  0  0  0  0  0
  1  2  1  0  0  0  0
  1  3  1  0  0  0  0
  2  5  1  0  0  0  0
  3  4  2  0  0  0  0
  4  6  1  0  0  0  0
  5  7  2  0  0  0  0
  6  8  1  0  0  0  0
  7  8  1  0  0  0  0
  9 10  1  0  0  0  0
  2  9  1  0  0  0  0
  9 11  1  0  0  0  0
 11 12  1  0  0  0  0
 11 13  1  0  0  0  0
 11 14  1  0  0  0  0
 12 15  1  0  0  0  0
 13 16  1  0  0  0  0
 14 17  1  0  0  0  0
M  END
> <NMREDATA_VERSION>
1.1

> <NMREDATA_LEVEL>
0

> <NMREDATA_SOLVENT>
C6D6

> <NMREDATA_TEMPERATURE>
298

> <NMREDATA_FORMULA>
C12H24O3PRh

> <NMREDATA_SMILES>
COP([Rh](C1C=CCCC=CC1)C)(OC)OC

> <NMREDATA_ASSIGNMENT>
Rh9, -129.00, 9

> <NMREDATA_1D_103Rh>
-129.00, L=Rh9

$$$$

  ACD/LABS02122411432D

 28 30  0  0  0  0  0  0  0  0  1 V2000
   19.3311  -12.4456    0.0000 C    0  0  0  0  0  0  0  0  0  0  0  0
   18.8256  -13.6783    0.0000 C    0  0  0  0  0  0  0  0  0  0  0  0
   20.5549  -11.9401    0.0000 C    0  0  0  0  0  0  0  0  0  0  0  0
   21.7876  -12.4456    0.0000 C    0  0  0  0  0  0  0  0  0  0  0  0
   19.3311  -14.9109    0.0000 C    0  0  0  0  0  0  0  0  0  0  0  0
   22.2928  -13.6783    0.0000 C    0  0  0  0  0  0  0  0  0  0  0  0
   20.5549  -15.4164    0.0000 C    0  0  0  0  0  0  0  0  0  0  0  0
   21.7876  -14.9109    0.0000 C    0  0  0  0  0  0  0  0  0  0  0  0
   17.4956  -13.6783    0.0000 Rh   0  0  0  0  0  0  0  0  0  0  0  0
   17.4956  -15.0086    0.0000 C    0  0  0  0  0  0  0  0  0  0  0  0
   16.5204  -10.9563    0.0000 P    0  0  0  0  0  0  0  0  0  0  0  0
   16.1745  -13.6783    0.0000 P    0  0  0  0  0  0  0  0  0  0  0  0
   15.2700  -11.3992    0.0000 C    0  0  0  0  0  0  0  0  0  0  0  0
   17.7616  -10.5128    0.0000 C    0  0  0  0  0  0  0  0  0  0  0  0
   16.1745  -12.3483    0.0000 C    0  0  0  0  0  0  0  0  0  0  0  0
   16.1745  -15.0086    0.0000 C    0  0  0  0  0  0  0  0  0  0  0  0
   14.8445  -13.6783    0.0000 C    0  0  0  0  0  0  0  0  0  0  0  0
   14.1792  -14.8310    0.0000 C    0  0  0  0  0  0  0  0  0  0  0  0
   14.1792  -12.5255    0.0000 C    0  0  0  0  0  0  0  0  0  0  0  0
   12.8492  -14.8310    0.0000 C    0  0  0  0  0  0  0  0  0  0  0  0
   12.8492  -12.5255    0.0000 C    0  0  0  0  0  0  0  0  0  0  0  0
   12.1842  -13.6783    0.0000 C    0  0  0  0  0  0  0  0  0  0  0  0
   16.0680   -9.7059    0.0000 C    0  0  0  0  0  0  0  0  0  0  0  0
   14.7557   -9.4753    0.0000 C    0  0  0  0  0  0  0  0  0  0  0  0
   16.9283   -8.6950    0.0000 C    0  0  0  0  0  0  0  0  0  0  0  0
   14.3122   -8.2249    0.0000 C    0  0  0  0  0  0  0  0  0  0  0  0
   16.4759   -7.4446    0.0000 C    0  0  0  0  0  0  0  0  0  0  0  0
   15.1636   -7.2052    0.0000 C    0  0  0  0  0  0  0  0  0  0  0  0
  1  2  1  0  0  0  0
  1  3  1  0  0  0  0
  2  5  1  0  0  0  0
  3  4  2  0  0  0  0
  4  6  1  0  0  0  0
  5  7  2  0  0  0  0
  6  8  1  0  0  0  0
  7  8  1  0  0  0  0
  9 10  1  0  0  0  0
  2  9  1  0  0  0  0
  9 11  1  0  0  0  0
  9 12  1  0  0  0  0
 11 13  1  0  0  0  0
 11 14  1  0  0  0  0
 12 15  1  0  0  0  0
 12 16  1  0  0  0  0
 17 18  1  0  0  0  0
 17 19  2  0  0  0  0
 18 20  2  0  0  0  0
 19 21  1  0  0  0  0
 20 22  1  0  0  0  0
 21 22  2  0  0  0  0
 12 17  1  0  0  0  0
 23 24  1  0  0  0  0
 23 25  2  0  0  0  0
 24 26  2  0  0  0  0
 25 27  1  0  0  0  0
 26 28  1  0  0  0  0
 27 28  2  0  0  0  0
 11 23  1  0  0  0  0
M  END
> <NMREDATA_VERSION>
1.1

> <NMREDATA_LEVEL>
0

> <NMREDATA_SOLVENT>
CD2Cl2

> <NMREDATA_TEMPERATURE>
255

> <NMREDATA_FORMULA>
C25H38P2Rh

> <NMREDATA_SMILES>
C[Rh](P(c1ccccc1)(C)C)(P(c1ccccc1)(C)C)C1C=CCCC=CC1

> <NMREDATA_ASSIGNMENT>
Rh9, -278.00, 9

> <NMREDATA_1D_103Rh>
-278.00, L=Rh9

$$$$

  ACD/LABS02122411442D

 18 18  0  0  0  0  0  0  0  0  1 V2000
   17.4762  -11.5816    0.0000 C    0  0  0  0  0  0  0  0  0  0  0  0
   17.4762  -10.2516    0.0000 C    0  0  0  0  0  0  0  0  0  0  0  0
   18.4166  -12.5220    0.0000 C    0  0  0  0  0  0  0  0  0  0  0  0
   19.7466  -12.5220    0.0000 C    0  0  0  0  0  0  0  0  0  0  0  0
   18.4166   -9.3111    0.0000 C    0  0  0  0  0  0  0  0  0  0  0  0
   20.6871  -11.5816    0.0000 C    0  0  0  0  0  0  0  0  0  0  0  0
   19.7466   -9.3111    0.0000 C    0  0  0  0  0  0  0  0  0  0  0  0
   20.6871  -10.2516    0.0000 C    0  0  0  0  0  0  0  0  0  0  0  0
   16.2474   -9.7426    0.0000 Rh   0  0  0  0  0  0  0  0  0  0  0  0
   16.7564   -8.5138    0.0000 C    0  0  0  0  0  0  0  0  0  0  0  0
   15.7384  -10.9714    0.0000 P    0  0  0  0  0  0  0  0  0  0  0  0
   15.0186   -9.2336    0.0000 P    0  0  0  0  0  0  0  0  0  0  0  0
   14.5097  -10.4624    0.0000 C    0  0  0  0  0  0  0  0  0  0  0  0
   16.9672  -11.4803    0.0000 C    0  0  0  0  0  0  0  0  0  0  0  0
   15.5276   -8.0049    0.0000 C    0  0  0  0  0  0  0  0  0  0  0  0
   14.0007  -11.6911    0.0000 C    0  0  0  0  0  0  0  0  0  0  0  0
   15.2295  -12.2001    0.0000 C    0  0  0  0  0  0  0  0  0  0  0  0
   13.7899   -8.7247    0.0000 C    0  0  0  0  0  0  0  0  0  0  0  0
  1  2  1  0  0  0  0
  1  3  1  0  0  0  0
  2  5  1  0  0  0  0
  3  4  2  0  0  0  0
  4  6  1  0  0  0  0
  5  7  2  0  0  0  0
  6  8  1  0  0  0  0
  7  8  1  0  0  0  0
  9 10  1  0  0  0  0
  2  9  1  0  0  0  0
  9 11  1  0  0  0  0
  9 12  1  0  0  0  0
 11 13  1  0  0  0  0
 11 14  1  0  0  0  0
 12 15  1  0  0  0  0
 12 16  1  0  0  0  0
 11 17  1  0  0  0  0
 12 18  1  0  0  0  0
M  END
> <NMREDATA_VERSION>
1.1

> <NMREDATA_LEVEL>
0

> <NMREDATA_SOLVENT>
toluene-d8

> <NMREDATA_TEMPERATURE>
253

> <NMREDATA_FORMULA>
C15H34P2Rh

> <NMREDATA_SMILES>
C[Rh](P(C)(C)C)(P(C)(C)C)C1C=CCCC=CC1

> <NMREDATA_ASSIGNMENT>
Rh9, -332.00, 9

> <NMREDATA_1D_103Rh>
-332.00, L=Rh9

$$$$

  ACD/LABS02122411492D

 18 17  0  0  0  0  0  0  0  0  1 V2000
   18.9620  -10.5204    0.0000 Rh   0  0  0  0  0  0  0  0  0  0  0  0
   20.0723   -9.6949    0.0000 C    0  0  0  0  0  0  0  0  0  0  0  0
   20.2912  -11.2878    0.0000 P    0  0  0  0  0  0  0  0  0  0  0  0
   17.4441  -10.4762    0.0000 P    0  0  0  0  0  0  0  0  0  0  0  0
   21.5843  -11.6135    0.0000 C    0  0  0  0  0  0  0  0  0  0  0  0
   20.7360  -12.5045    0.0000 C    0  0  0  0  0  0  0  0  0  0  0  0
   16.1295  -10.3535    0.0000 C    0  0  0  0  0  0  0  0  0  0  0  0
   16.7253   -9.3562    0.0000 C    0  0  0  0  0  0  0  0  0  0  0  0
   21.3577  -10.4228    0.0000 C    0  0  0  0  0  0  0  0  0  0  0  0
   16.4948  -11.4077    0.0000 C    0  0  0  0  0  0  0  0  0  0  0  0
   18.8971   -8.9918    0.0000 P    0  0  0  0  0  0  0  0  0  0  0  0
   18.7292  -12.0096    0.0000 P    0  0  0  0  0  0  0  0  0  0  0  0
   18.7736   -7.6691    0.0000 C    0  0  0  0  0  0  0  0  0  0  0  0
   20.0233   -8.2021    0.0000 C    0  0  0  0  0  0  0  0  0  0  0  0
   17.7943   -8.3319    0.0000 C    0  0  0  0  0  0  0  0  0  0  0  0
   18.1982  -13.2424    0.0000 C    0  0  0  0  0  0  0  0  0  0  0  0
   19.3910  -13.1536    0.0000 C    0  0  0  0  0  0  0  0  0  0  0  0
   17.5158  -12.4079    0.0000 C    0  0  0  0  0  0  0  0  0  0  0  0
  1  2  1  0  0  0  0
  1  3  1  0  0  0  0
  1  4  1  0  0  0  0
  3  5  1  0  0  0  0
  3  6  1  0  0  0  0
  4  7  1  0  0  0  0
  4  8  1  0  0  0  0
  3  9  1  0  0  0  0
  4 10  1  0  0  0  0
  1 11  1  0  0  0  0
  1 12  1  0  0  0  0
 11 13  1  0  0  0  0
 11 14  1  0  0  0  0
 11 15  1  0  0  0  0
 12 16  1  0  0  0  0
 12 17  1  0  0  0  0
 12 18  1  0  0  0  0
M  END
> <NMREDATA_VERSION>
1.1

> <NMREDATA_LEVEL>
0

> <NMREDATA_SOLVENT>
toluene-d8

> <NMREDATA_TEMPERATURE>
223

> <NMREDATA_FORMULA>
C13H43P4Rh

> <NMREDATA_SMILES>
CP([Rh](P(C)(C)C)(P(C)(C)C)(P(C)(C)C)C)(C)C

> <NMREDATA_ASSIGNMENT>
Rh1, -490.00, 1

> <NMREDATA_1D_103Rh>
-490.00, L=Rh1

$$$$

  ACD/LABS02122411492D

 18 17  0  0  0  0  0  0  0  0  1 V2000
   18.9620  -10.5204    0.0000 Rh   0  0  0  0  0  0  0  0  0  0  0  0
   20.0723   -9.6949    0.0000 C    0  0  0  0  0  0  0  0  0  0  0  0
   20.2912  -11.2878    0.0000 P    0  0  0  0  0  0  0  0  0  0  0  0
   17.4441  -10.4762    0.0000 P    0  0  0  0  0  0  0  0  0  0  0  0
   21.5843  -11.6135    0.0000 C    0  0  0  0  0  0  0  0  0  0  0  0
   20.7360  -12.5045    0.0000 C    0  0  0  0  0  0  0  0  0  0  0  0
   16.1295  -10.3535    0.0000 C    0  0  0  0  0  0  0  0  0  0  0  0
   16.7253   -9.3562    0.0000 C    0  0  0  0  0  0  0  0  0  0  0  0
   21.3577  -10.4228    0.0000 C    0  0  0  0  0  0  0  0  0  0  0  0
   16.4948  -11.4077    0.0000 C    0  0  0  0  0  0  0  0  0  0  0  0
   18.8971   -8.9918    0.0000 P    0  0  0  0  0  0  0  0  0  0  0  0
   18.7292  -12.0096    0.0000 P    0  0  0  0  0  0  0  0  0  0  0  0
   18.7736   -7.6691    0.0000 C    0  0  0  0  0  0  0  0  0  0  0  0
   20.0233   -8.2021    0.0000 C    0  0  0  0  0  0  0  0  0  0  0  0
   17.7943   -8.3319    0.0000 C    0  0  0  0  0  0  0  0  0  0  0  0
   18.1982  -13.2424    0.0000 C    0  0  0  0  0  0  0  0  0  0  0  0
   19.3910  -13.1536    0.0000 C    0  0  0  0  0  0  0  0  0  0  0  0
   17.5158  -12.4079    0.0000 C    0  0  0  0  0  0  0  0  0  0  0  0
  1  2  1  0  0  0  0
  1  3  1  0  0  0  0
  1  4  1  0  0  0  0
  3  5  1  0  0  0  0
  3  6  1  0  0  0  0
  4  7  1  0  0  0  0
  4  8  1  0  0  0  0
  3  9  1  0  0  0  0
  4 10  1  0  0  0  0
  1 11  1  0  0  0  0
  1 12  1  0  0  0  0
 11 13  1  0  0  0  0
 11 14  1  0  0  0  0
 11 15  1  0  0  0  0
 12 16  1  0  0  0  0
 12 17  1  0  0  0  0
 12 18  1  0  0  0  0
M  END
> <NMREDATA_VERSION>
1.1

> <NMREDATA_LEVEL>
0

> <NMREDATA_SOLVENT>
toluene-d8

> <NMREDATA_TEMPERATURE>
233

> <NMREDATA_FORMULA>
C13H43P4Rh

> <NMREDATA_SMILES>
CP([Rh](P(C)(C)C)(P(C)(C)C)(P(C)(C)C)C)(C)C

> <NMREDATA_ASSIGNMENT>
Rh1, -482.00, 1

> <NMREDATA_1D_103Rh>
-482.00, L=Rh1

$$$$

  ACD/LABS02122411592D

 58 63  0  0  0  0  0  0  0  0  2 V2000
    7.8542   -9.3408    0.0000 C    0  0  0  0  0  0  0  0  0  0  0  0
    6.5311   -9.3451    0.0000 C    0  0  0  0  0  0  0  0  0  0  0  0
    8.5198  -10.4933    0.0000 C    0  0  0  0  0  0  0  0  0  0  0  0
    5.8661  -10.4969    0.0000 C    0  0  0  0  0  0  0  0  0  0  0  0
    7.8548  -11.6451    0.0000 C    0  0  0  0  0  0  0  0  0  0  0  0
    6.5239  -11.6448    0.0000 C    0  0  0  0  0  0  0  0  0  0  0  0
   10.5098  -16.2494    0.0000 C    0  0  0  0  0  0  0  0  0  0  0  0
   11.1748  -15.0976    0.0000 C    0  0  0  0  0  0  0  0  0  0  0  0
    9.1789  -16.2492    0.0000 C    0  0  0  0  0  0  0  0  0  0  0  0
   10.5089  -13.9455    0.0000 C    0  0  0  0  0  0  0  0  0  0  0  0
    8.5132  -15.0967    0.0000 C    0  0  0  0  0  0  0  0  0  0  0  0
    9.1782  -13.9449    0.0000 C    0  0  0  0  0  0  0  0  0  0  0  0
   11.0265  -11.3468    0.0000 Rh   0  3  0  0  0  0  0  0  0  0  0  0
   11.0222  -10.0237    0.0000 C    0  0  0  0  0  0  0  0  0  0  0  0
   12.1747   -9.3580    0.0000 S    0  0  0  0  0  0  0  0  0  0  0  0
   13.3265  -10.0230    0.0000 O    0  0  0  0  0  0  0  0  0  0  0  0
   12.1750   -8.0271    0.0000 C    0  0  0  0  0  0  0  0  0  0  0  0
   11.0232   -7.3621    0.0000 C    0  0  0  0  0  0  0  0  0  0  0  0
   13.3274   -7.3614    0.0000 C    0  0  0  0  0  0  0  0  0  0  0  0
   11.0316   -6.0360    0.0000 C    0  0  0  0  0  0  0  0  0  0  0  0
   13.3277   -6.0305    0.0000 C    0  0  0  0  0  0  0  0  0  0  0  0
   12.1759   -5.3655    0.0000 C    0  0  0  0  0  0  0  0  0  0  0  0
   12.1844   -4.0394    0.0000 C    0  0  0  0  0  0  0  0  0  0  0  0
    8.5123  -12.7928    0.0000 P    0  0  0  0  0  0  0  0  0  0  0  0
    7.3602  -13.4587    0.0000 C    0  0  0  0  0  0  0  0  0  0  0  0
    6.2162  -12.7982    0.0000 C    0  0  0  0  0  0  0  0  0  0  0  0
    7.3596  -14.7894    0.0000 C    0  0  0  0  0  0  0  0  0  0  0  0
    5.0642  -13.4641    0.0000 C    0  0  0  0  0  0  0  0  0  0  0  0
    6.2075  -15.4553    0.0000 C    0  0  0  0  0  0  0  0  0  0  0  0
    5.0635  -14.7948    0.0000 C    0  0  0  0  0  0  0  0  0  0  0  0
    6.2187   -8.3250    0.0000 P    0  0  0  0  0  0  0  0  0  0  0  0
    7.3664   -7.6676    0.0000 C    0  0  0  0  0  0  0  0  0  0  0  0
    8.5182   -8.3326    0.0000 C    0  0  0  0  0  0  0  0  0  0  0  0
    7.3624   -6.3441    0.0000 C    0  0  0  0  0  0  0  0  0  0  0  0
    9.6660   -7.6741    0.0000 C    0  0  0  0  0  0  0  0  0  0  0  0
    8.5149   -5.6784    0.0000 C    0  0  0  0  0  0  0  0  0  0  0  0
    9.6667   -6.3434    0.0000 C    0  0  0  0  0  0  0  0  0  0  0  0
    5.0669   -7.6600    0.0000 C    0  0  0  0  0  0  0  0  0  0  0  0
    3.9144   -8.3257    0.0000 C    0  0  0  0  0  0  0  0  0  0  0  0
    5.0624   -6.3374    0.0000 C    0  0  0  0  0  0  0  0  0  0  0  0
    2.7626   -7.6607    0.0000 C    0  0  0  0  0  0  0  0  0  0  0  0
    3.9106   -5.6724    0.0000 C    0  0  0  0  0  0  0  0  0  0  0  0
    2.7633   -6.3300    0.0000 C    0  0  0  0  0  0  0  0  0  0  0  0
   12.1783  -12.0118    0.0000 C    0  0  0  0  0  0  0  0  0  0  0  0
   12.0043  -13.3244    0.0000 C    0  0  0  0  0  0  0  0  0  0  0  0
   13.2278  -11.2052    0.0000 C    0  0  0  0  0  0  0  0  0  0  0  0
   14.5478  -11.3835    0.0000 C    0  0  0  0  0  0  0  0  0  0  0  0
   12.8144  -14.3858    0.0000 C    0  0  0  0  0  0  0  0  0  0  0  0
   15.3548  -12.4332    0.0000 C    0  0  0  0  0  0  0  0  0  0  0  0
   14.1313  -14.5524    0.0000 C    0  0  0  0  0  0  0  0  0  0  0  0
   15.1885  -13.7497    0.0000 C    0  0  0  0  0  0  0  0  0  0  0  0
   26.4798  -14.3496    0.0000 P    0  5  0  0  0  0  0  0  0  0  0  0
   24.9495  -11.6990    0.0000 F    0  0  0  0  0  0  0  0  0  0  0  0
   28.0101  -11.6990    0.0000 F    0  0  0  0  0  0  0  0  0  0  0  0
   29.5404  -14.3496    0.0000 F    0  0  0  0  0  0  0  0  0  0  0  0
   24.9495  -17.0001    0.0000 F    0  0  0  0  0  0  0  0  0  0  0  0
   23.4192  -14.3496    0.0000 F    0  0  0  0  0  0  0  0  0  0  0  0
   28.0101  -17.0001    0.0000 F    0  0  0  0  0  0  0  0  0  0  0  0
  1  2  1  0  0  0  0
  1  3  2  0  0  0  0
  2  4  2  0  0  0  0
  3  5  1  0  0  0  0
  4  6  1  0  0  0  0
  5  6  2  0  0  0  0
  7  8  1  0  0  0  0
  7  9  2  0  0  0  0
  8 10  2  0  0  0  0
  9 11  1  0  0  0  0
 10 12  1  0  0  0  0
 11 12  2  0  0  0  0
 13 14  1  0  0  0  0
 14 15  1  0  0  0  0
 15 16  2  0  0  0  0
 17 18  1  0  0  0  0
 17 19  2  0  0  0  0
 18 20  2  0  0  0  0
 19 21  1  0  0  0  0
 20 22  1  0  0  0  0
 21 22  2  0  0  0  0
 15 17  1  0  0  0  0
 22 23  1  0  0  0  0
 13 24  1  0  0  0  0
 12 24  1  0  0  0  0
  5 24  1  0  0  0  0
 25 26  1  0  0  0  0
 25 27  2  0  0  0  0
 26 28  2  0  0  0  0
 27 29  1  0  0  0  0
 28 30  1  0  0  0  0
 29 30  2  0  0  0  0
 24 25  1  0  0  0  0
 26 31  1  0  0  0  0
 32 33  1  0  0  0  0
 32 34  2  0  0  0  0
 33 35  2  0  0  0  0
 34 36  1  0  0  0  0
 35 37  1  0  0  0  0
 36 37  2  0  0  0  0
 31 32  1  0  0  0  0
 38 39  1  0  0  0  0
 38 40  2  0  0  0  0
 39 41  2  0  0  0  0
 40 42  1  0  0  0  0
 41 43  1  0  0  0  0
 42 43  2  0  0  0  0
 31 38  1  0  0  0  0
 44 45  1  0  0  0  0
 44 46  1  0  0  0  0
 45 48  2  0  0  0  0
 46 47  1  0  0  0  0
 47 49  2  0  0  0  0
 48 50  1  0  0  0  0
 49 51  1  0  0  0  0
 50 51  1  0  0  0  0
 13 44  1  0  0  0  0
 52 53  1  0  0  0  0
 52 54  1  0  0  0  0
 52 55  1  0  0  0  0
 52 56  1  0  0  0  0
 52 57  1  0  0  0  0
 52 58  1  0  0  0  0
M  END
> <NMREDATA_VERSION>
1.1

> <NMREDATA_LEVEL>
0

> <NMREDATA_SOLVENT>
toluene-d8

> <NMREDATA_FORMULA>
C46H45F6OP3RhS

> <NMREDATA_SMILES>
F[P](F)(F)(F)(F)F.Cc1ccc(cc1)S(=O)C[Rh](P(c1ccccc1P(c1ccccc1)c1ccccc1)(c1ccccc1)c1ccccc1)C1C=CCCC=CC1

> <NMREDATA_ASSIGNMENT>
Rh13, 170.00, 13

> <NMREDATA_1D_103Rh>
170.00, L=Rh13

$$$$

  ACD/LABS02122412002D

 58 63  0  0  0  0  0  0  0  0  2 V2000
    7.8542   -9.3408    0.0000 C    0  0  0  0  0  0  0  0  0  0  0  0
    6.5311   -9.3451    0.0000 C    0  0  0  0  0  0  0  0  0  0  0  0
    8.5198  -10.4933    0.0000 C    0  0  0  0  0  0  0  0  0  0  0  0
    5.8661  -10.4969    0.0000 C    0  0  0  0  0  0  0  0  0  0  0  0
    7.8548  -11.6451    0.0000 C    0  0  0  0  0  0  0  0  0  0  0  0
    6.5239  -11.6448    0.0000 C    0  0  0  0  0  0  0  0  0  0  0  0
   10.5098  -16.2494    0.0000 C    0  0  0  0  0  0  0  0  0  0  0  0
   11.1748  -15.0976    0.0000 C    0  0  0  0  0  0  0  0  0  0  0  0
    9.1789  -16.2492    0.0000 C    0  0  0  0  0  0  0  0  0  0  0  0
   10.5089  -13.9455    0.0000 C    0  0  0  0  0  0  0  0  0  0  0  0
    8.5132  -15.0967    0.0000 C    0  0  0  0  0  0  0  0  0  0  0  0
    9.1782  -13.9449    0.0000 C    0  0  0  0  0  0  0  0  0  0  0  0
   11.0265  -11.3468    0.0000 Rh   0  3  0  0  0  0  0  0  0  0  0  0
   11.0222  -10.0237    0.0000 C    0  0  0  0  0  0  0  0  0  0  0  0
   12.1747   -9.3580    0.0000 S    0  0  0  0  0  0  0  0  0  0  0  0
   13.3265  -10.0230    0.0000 O    0  0  0  0  0  0  0  0  0  0  0  0
   12.1750   -8.0271    0.0000 C    0  0  0  0  0  0  0  0  0  0  0  0
   11.0232   -7.3621    0.0000 C    0  0  0  0  0  0  0  0  0  0  0  0
   13.3274   -7.3614    0.0000 C    0  0  0  0  0  0  0  0  0  0  0  0
   11.0316   -6.0360    0.0000 C    0  0  0  0  0  0  0  0  0  0  0  0
   13.3277   -6.0305    0.0000 C    0  0  0  0  0  0  0  0  0  0  0  0
   12.1759   -5.3655    0.0000 C    0  0  0  0  0  0  0  0  0  0  0  0
   12.1844   -4.0394    0.0000 C    0  0  0  0  0  0  0  0  0  0  0  0
    8.5123  -12.7928    0.0000 P    0  0  0  0  0  0  0  0  0  0  0  0
    7.3602  -13.4587    0.0000 C    0  0  0  0  0  0  0  0  0  0  0  0
    6.2162  -12.7982    0.0000 C    0  0  0  0  0  0  0  0  0  0  0  0
    7.3596  -14.7894    0.0000 C    0  0  0  0  0  0  0  0  0  0  0  0
    5.0642  -13.4641    0.0000 C    0  0  0  0  0  0  0  0  0  0  0  0
    6.2075  -15.4553    0.0000 C    0  0  0  0  0  0  0  0  0  0  0  0
    5.0635  -14.7948    0.0000 C    0  0  0  0  0  0  0  0  0  0  0  0
    6.2187   -8.3250    0.0000 P    0  0  0  0  0  0  0  0  0  0  0  0
    7.3664   -7.6676    0.0000 C    0  0  0  0  0  0  0  0  0  0  0  0
    8.5182   -8.3326    0.0000 C    0  0  0  0  0  0  0  0  0  0  0  0
    7.3624   -6.3441    0.0000 C    0  0  0  0  0  0  0  0  0  0  0  0
    9.6660   -7.6741    0.0000 C    0  0  0  0  0  0  0  0  0  0  0  0
    8.5149   -5.6784    0.0000 C    0  0  0  0  0  0  0  0  0  0  0  0
    9.6667   -6.3434    0.0000 C    0  0  0  0  0  0  0  0  0  0  0  0
    5.0669   -7.6600    0.0000 C    0  0  0  0  0  0  0  0  0  0  0  0
    3.9144   -8.3257    0.0000 C    0  0  0  0  0  0  0  0  0  0  0  0
    5.0624   -6.3374    0.0000 C    0  0  0  0  0  0  0  0  0  0  0  0
    2.7626   -7.6607    0.0000 C    0  0  0  0  0  0  0  0  0  0  0  0
    3.9106   -5.6724    0.0000 C    0  0  0  0  0  0  0  0  0  0  0  0
    2.7633   -6.3300    0.0000 C    0  0  0  0  0  0  0  0  0  0  0  0
   12.1783  -12.0118    0.0000 C    0  0  0  0  0  0  0  0  0  0  0  0
   12.0043  -13.3244    0.0000 C    0  0  0  0  0  0  0  0  0  0  0  0
   13.2278  -11.2052    0.0000 C    0  0  0  0  0  0  0  0  0  0  0  0
   14.5478  -11.3835    0.0000 C    0  0  0  0  0  0  0  0  0  0  0  0
   12.8144  -14.3858    0.0000 C    0  0  0  0  0  0  0  0  0  0  0  0
   15.3548  -12.4332    0.0000 C    0  0  0  0  0  0  0  0  0  0  0  0
   14.1313  -14.5524    0.0000 C    0  0  0  0  0  0  0  0  0  0  0  0
   15.1885  -13.7497    0.0000 C    0  0  0  0  0  0  0  0  0  0  0  0
   26.4798  -14.3496    0.0000 P    0  5  0  0  0  0  0  0  0  0  0  0
   24.9495  -11.6990    0.0000 F    0  0  0  0  0  0  0  0  0  0  0  0
   28.0101  -11.6990    0.0000 F    0  0  0  0  0  0  0  0  0  0  0  0
   29.5404  -14.3496    0.0000 F    0  0  0  0  0  0  0  0  0  0  0  0
   24.9495  -17.0001    0.0000 F    0  0  0  0  0  0  0  0  0  0  0  0
   23.4192  -14.3496    0.0000 F    0  0  0  0  0  0  0  0  0  0  0  0
   28.0101  -17.0001    0.0000 F    0  0  0  0  0  0  0  0  0  0  0  0
  1  2  1  0  0  0  0
  1  3  2  0  0  0  0
  2  4  2  0  0  0  0
  3  5  1  0  0  0  0
  4  6  1  0  0  0  0
  5  6  2  0  0  0  0
  7  8  1  0  0  0  0
  7  9  2  0  0  0  0
  8 10  2  0  0  0  0
  9 11  1  0  0  0  0
 10 12  1  0  0  0  0
 11 12  2  0  0  0  0
 13 14  1  0  0  0  0
 14 15  1  0  0  0  0
 15 16  2  0  0  0  0
 17 18  1  0  0  0  0
 17 19  2  0  0  0  0
 18 20  2  0  0  0  0
 19 21  1  0  0  0  0
 20 22  1  0  0  0  0
 21 22  2  0  0  0  0
 15 17  1  0  0  0  0
 22 23  1  0  0  0  0
 13 24  1  0  0  0  0
 12 24  1  0  0  0  0
  5 24  1  0  0  0  0
 25 26  1  0  0  0  0
 25 27  2  0  0  0  0
 26 28  2  0  0  0  0
 27 29  1  0  0  0  0
 28 30  1  0  0  0  0
 29 30  2  0  0  0  0
 24 25  1  0  0  0  0
 26 31  1  0  0  0  0
 32 33  1  0  0  0  0
 32 34  2  0  0  0  0
 33 35  2  0  0  0  0
 34 36  1  0  0  0  0
 35 37  1  0  0  0  0
 36 37  2  0  0  0  0
 31 32  1  0  0  0  0
 38 39  1  0  0  0  0
 38 40  2  0  0  0  0
 39 41  2  0  0  0  0
 40 42  1  0  0  0  0
 41 43  1  0  0  0  0
 42 43  2  0  0  0  0
 31 38  1  0  0  0  0
 44 45  1  0  0  0  0
 44 46  1  0  0  0  0
 45 48  2  0  0  0  0
 46 47  1  0  0  0  0
 47 49  2  0  0  0  0
 48 50  1  0  0  0  0
 49 51  1  0  0  0  0
 50 51  1  0  0  0  0
 13 44  1  0  0  0  0
 52 53  1  0  0  0  0
 52 54  1  0  0  0  0
 52 55  1  0  0  0  0
 52 56  1  0  0  0  0
 52 57  1  0  0  0  0
 52 58  1  0  0  0  0
M  END
> <NMREDATA_VERSION>
1.1

> <NMREDATA_LEVEL>
0

> <NMREDATA_SOLVENT>
DCCl3

> <NMREDATA_FORMULA>
C46H45F6OP3RhS

> <NMREDATA_SMILES>
F[P](F)(F)(F)(F)F.Cc1ccc(cc1)S(=O)C[Rh](P(c1ccccc1P(c1ccccc1)c1ccccc1)(c1ccccc1)c1ccccc1)C1C=CCCC=CC1

> <NMREDATA_ASSIGNMENT>
Rh13, 261.00, 13

> <NMREDATA_1D_103Rh>
261.00, L=Rh13

$$$$

  ACD/LABS02122413462D

 31 34  0  0  0  0  0  0  0  0  1 V2000
   22.5000   -5.7138    0.0000 C    0  0  0  0  0  0  0  0  0  0  0  0
   23.8048   -5.9531    0.0000 C    0  0  0  0  0  0  0  0  0  0  0  0
   21.6438   -6.7298    0.0000 C    0  0  0  0  0  0  0  0  0  0  0  0
   24.2518   -7.1885    0.0000 C    0  0  0  0  0  0  0  0  0  0  0  0
   22.0832   -7.9699    0.0000 C    0  0  0  0  0  0  0  0  0  0  0  0
   23.3958   -8.2047    0.0000 C    0  0  0  0  0  0  0  0  0  0  0  0
   24.2681  -11.5593    0.0000 C    0  0  0  0  0  0  0  0  0  0  0  0
   23.0246  -12.0110    0.0000 C    0  0  0  0  0  0  0  0  0  0  0  0
   24.5074  -10.2545    0.0000 C    0  0  0  0  0  0  0  0  0  0  0  0
   22.0165  -11.1503    0.0000 C    0  0  0  0  0  0  0  0  0  0  0  0
   23.4912   -9.3980    0.0000 C    0  0  0  0  0  0  0  0  0  0  0  0
   22.2435   -9.8422    0.0000 C    0  0  0  0  0  0  0  0  0  0  0  0
   18.9678   -8.5817    0.0000 Rh   0  0  0  0  0  0  0  0  0  0  0  0
   20.2235   -8.1333    0.0000 C    0  0  0  0  0  0  0  0  0  0  0  0
   21.2270   -8.9859    0.0000 P    0  0  0  0  0  0  0  0  0  0  0  0
   20.3788   -9.9977    0.0000 N    0  0  0  0  0  0  0  0  0  0  0  0
   20.3792  -11.3277    0.0000 C    0  0  0  0  0  0  0  0  0  0  0  0
   21.5310  -11.9933    0.0000 C    0  0  0  0  0  0  0  0  0  0  0  0
   19.2279  -11.9923    0.0000 C    0  0  0  0  0  0  0  0  0  0  0  0
   21.5314  -13.3233    0.0000 C    0  0  0  0  0  0  0  0  0  0  0  0
   19.2285  -13.3226    0.0000 C    0  0  0  0  0  0  0  0  0  0  0  0
   20.3801  -13.9880    0.0000 C    0  0  0  0  0  0  0  0  0  0  0  0
   20.3805  -15.3180    0.0000 C    0  0  0  0  0  0  0  0  0  0  0  0
   17.9593   -7.7212    0.0000 C    0  0  0  0  0  0  0  0  0  0  0  0
   18.3558   -6.4585    0.0000 C    0  0  0  0  0  0  0  0  0  0  0  0
   16.7771   -8.3322    0.0000 C    0  0  0  0  0  0  0  0  0  0  0  0
   15.5099   -7.9276    0.0000 C    0  0  0  0  0  0  0  0  0  0  0  0
   17.7528   -5.2717    0.0000 C    0  0  0  0  0  0  0  0  0  0  0  0
   14.8988   -6.7455    0.0000 C    0  0  0  0  0  0  0  0  0  0  0  0
   16.4902   -4.8752    0.0000 C    0  0  0  0  0  0  0  0  0  0  0  0
   15.3035   -5.4785    0.0000 C    0  0  0  0  0  0  0  0  0  0  0  0
  1  2  1  0  0  0  0
  1  3  2  0  0  0  0
  2  4  2  0  0  0  0
  3  5  1  0  0  0  0
  4  6  1  0  0  0  0
  5  6  2  0  0  0  0
  7  8  1  0  0  0  0
  7  9  2  0  0  0  0
  8 10  2  0  0  0  0
  9 11  1  0  0  0  0
 10 12  1  0  0  0  0
 11 12  2  0  0  0  0
 13 14  1  0  0  0  0
 14 15  1  0  0  0  0
 15 16  2  0  0  0  0
 12 15  1  0  0  0  0
  5 15  1  0  0  0  0
 17 18  1  0  0  0  0
 17 19  2  0  0  0  0
 18 20  2  0  0  0  0
 19 21  1  0  0  0  0
 20 22  1  0  0  0  0
 21 22  2  0  0  0  0
 16 17  1  0  0  0  0
 22 23  1  0  0  0  0
 24 25  1  0  0  0  0
 24 26  1  0  0  0  0
 25 28  1  0  0  0  0
 26 27  2  0  0  0  0
 27 29  1  0  0  0  0
 28 30  2  0  0  0  0
 29 31  1  0  0  0  0
 30 31  1  0  0  0  0
 13 24  1  0  0  0  0
M  END
> <NMREDATA_VERSION>
1.1

> <NMREDATA_LEVEL>
0

> <NMREDATA_SOLVENT>
DCCl3

> <NMREDATA_TEMPERATURE>
295

> <NMREDATA_FORMULA>
C28H30NPRh

> <NMREDATA_SMILES>
Cc1ccc(cc1)N=P(c1ccccc1)(c1ccccc1)C[Rh]C1C=CCCC=CC1

> <NMREDATA_ASSIGNMENT>
Rh13, 787.00, 13

> <NMREDATA_1D_103Rh>
787.00, L=Rh13

$$$$

  ACD/LABS02122413482D

 52 58  0  0  0  0  0  0  0  0  1 V2000
   17.5564  -12.8917    0.0000 C    0  0  0  0  0  0  0  0  0  0  0  0
   16.8914  -14.0442    0.0000 C    0  0  0  0  0  0  0  0  0  0  0  0
   16.8914  -11.7391    0.0000 C    0  0  0  0  0  0  0  0  0  0  0  0
   15.5709  -14.0442    0.0000 C    0  0  0  0  0  0  0  0  0  0  0  0
   15.5709  -11.7391    0.0000 C    0  0  0  0  0  0  0  0  0  0  0  0
   14.9059  -12.8917    0.0000 C    0  0  0  0  0  0  0  0  0  0  0  0
   11.8378  -13.1398    0.0000 C    0  0  0  0  0  0  0  0  0  0  0  0
   13.0880  -13.6011    0.0000 C    0  0  0  0  0  0  0  0  0  0  0  0
   11.6163  -11.8364    0.0000 C    0  0  0  0  0  0  0  0  0  0  0  0
   14.1079  -12.7499    0.0000 C    0  0  0  0  0  0  0  0  0  0  0  0
   12.6358  -10.9765    0.0000 C    0  0  0  0  0  0  0  0  0  0  0  0
   13.8860  -11.4374    0.0000 C    0  0  0  0  0  0  0  0  0  0  0  0
   14.9059  -10.5957    0.0000 P    0  0  0  0  0  0  0  0  0  0  0  0
   14.2409   -9.4432    0.0000 N    0  0  0  0  0  0  0  0  0  0  0  0
   12.9284   -9.2125    0.0000 C    0  0  0  0  0  0  0  0  0  0  0  0
   12.0772  -10.2321    0.0000 C    0  0  0  0  0  0  0  0  0  0  0  0
   12.4675   -7.9623    0.0000 C    0  0  0  0  0  0  0  0  0  0  0  0
   10.7651  -10.0018    0.0000 C    0  0  0  0  0  0  0  0  0  0  0  0
   11.1641   -7.7317    0.0000 C    0  0  0  0  0  0  0  0  0  0  0  0
   10.3041   -8.7603    0.0000 C    0  0  0  0  0  0  0  0  0  0  0  0
    9.0007   -8.5297    0.0000 C    0  0  0  0  0  0  0  0  0  0  0  0
   19.2234   -6.3576    0.0000 C    0  0  0  0  0  0  0  0  0  0  0  0
   20.5534   -6.3576    0.0000 C    0  0  0  0  0  0  0  0  0  0  0  0
   18.5584   -7.5014    0.0000 C    0  0  0  0  0  0  0  0  0  0  0  0
   21.2184   -7.5014    0.0000 C    0  0  0  0  0  0  0  0  0  0  0  0
   19.2234   -8.6539    0.0000 C    0  0  0  0  0  0  0  0  0  0  0  0
   20.5534   -8.6539    0.0000 C    0  0  0  0  0  0  0  0  0  0  0  0
   22.2999  -11.1714    0.0000 C    0  0  0  0  0  0  0  0  0  0  0  0
   22.0784   -9.8688    0.0000 C    0  0  0  0  0  0  0  0  0  0  0  0
   21.2804  -12.0226    0.0000 C    0  0  0  0  0  0  0  0  0  0  0  0
   20.8282   -9.4166    0.0000 C    0  0  0  0  0  0  0  0  0  0  0  0
   20.0302  -11.5704    0.0000 C    0  0  0  0  0  0  0  0  0  0  0  0
   19.8086  -10.2678    0.0000 C    0  0  0  0  0  0  0  0  0  0  0  0
   17.4055   -7.8115    0.0000 Rh   0  0  0  0  0  0  0  0  0  0  0  0
   17.4055   -9.1415    0.0000 C    0  0  0  0  0  0  0  0  0  0  0  0
   18.5584   -9.8065    0.0000 P    0  0  0  0  0  0  0  0  0  0  0  0
   17.8934  -10.9499    0.0000 N    0  0  0  0  0  0  0  0  0  0  0  0
   19.3386  -13.4590    0.0000 C    0  0  0  0  0  0  0  0  0  0  0  0
   20.6507  -13.6897    0.0000 C    0  0  0  0  0  0  0  0  0  0  0  0
   18.4874  -14.4789    0.0000 C    0  0  0  0  0  0  0  0  0  0  0  0
   21.1120  -14.9399    0.0000 C    0  0  0  0  0  0  0  0  0  0  0  0
   18.9483  -15.7291    0.0000 C    0  0  0  0  0  0  0  0  0  0  0  0
   20.2517  -15.9594    0.0000 C    0  0  0  0  0  0  0  0  0  0  0  0
   20.7130  -17.2096    0.0000 C    0  0  0  0  0  0  0  0  0  0  0  0
   16.2530   -7.1465    0.0000 C    0  0  0  0  0  0  0  0  0  0  0  0
   15.2073   -7.9623    0.0000 C    0  0  0  0  0  0  0  0  0  0  0  0
   16.4304   -5.8343    0.0000 C    0  0  0  0  0  0  0  0  0  0  0  0
   15.6241   -4.7791    0.0000 C    0  0  0  0  0  0  0  0  0  0  0  0
   13.8860   -7.7849    0.0000 C    0  0  0  0  0  0  0  0  0  0  0  0
   14.3116   -4.6020    0.0000 C    0  0  0  0  0  0  0  0  0  0  0  0
   13.0793   -6.7300    0.0000 C    0  0  0  0  0  0  0  0  0  0  0  0
   13.2567   -5.4087    0.0000 C    0  0  0  0  0  0  0  0  0  0  0  0
  1  2  1  0  0  0  0
  1  3  2  0  0  0  0
  2  4  2  0  0  0  0
  3  5  1  0  0  0  0
  4  6  1  0  0  0  0
  5  6  2  0  0  0  0
  7  8  1  0  0  0  0
  7  9  2  0  0  0  0
  8 10  2  0  0  0  0
  9 11  1  0  0  0  0
 10 12  1  0  0  0  0
 11 12  2  0  0  0  0
 13 14  2  0  0  0  0
 12 13  1  0  0  0  0
  5 13  1  0  0  0  0
 15 16  1  0  0  0  0
 15 17  2  0  0  0  0
 16 18  2  0  0  0  0
 17 19  1  0  0  0  0
 18 20  1  0  0  0  0
 19 20  2  0  0  0  0
 14 15  1  0  0  0  0
 20 21  1  0  0  0  0
 22 23  1  0  0  0  0
 22 24  2  0  0  0  0
 23 25  2  0  0  0  0
 24 26  1  0  0  0  0
 25 27  1  0  0  0  0
 26 27  2  0  0  0  0
 28 29  1  0  0  0  0
 28 30  2  0  0  0  0
 29 31  2  0  0  0  0
 30 32  1  0  0  0  0
 31 33  1  0  0  0  0
 32 33  2  0  0  0  0
 34 35  1  0  0  0  0
 35 36  1  0  0  0  0
 36 37  2  0  0  0  0
 33 36  1  0  0  0  0
 26 36  1  0  0  0  0
 38 39  1  0  0  0  0
 38 40  2  0  0  0  0
 39 41  2  0  0  0  0
 40 42  1  0  0  0  0
 41 43  1  0  0  0  0
 42 43  2  0  0  0  0
 37 38  1  0  0  0  0
 43 44  1  0  0  0  0
 45 46  1  0  0  0  0
 45 47  1  0  0  0  0
 46 49  1  0  0  0  0
 47 48  2  0  0  0  0
 48 50  1  0  0  0  0
 49 51  2  0  0  0  0
 50 52  1  0  0  0  0
 51 52  1  0  0  0  0
 34 45  1  0  0  0  0
 13 35  1  0  0  0  0
M  END
> <NMREDATA_VERSION>
1.1

> <NMREDATA_LEVEL>
0

> <NMREDATA_SOLVENT>
C6D6

> <NMREDATA_TEMPERATURE>
298

> <NMREDATA_FORMULA>
C47H46N2P2Rh

> <NMREDATA_SMILES>
Cc1ccc(cc1)N=P(C(P(=Nc1ccc(cc1)C)(c1ccccc1)c1ccccc1)[Rh]C1C=CCCC=CC1)(c1ccccc1)c1ccccc1

> <NMREDATA_ASSIGNMENT>
Rh34, 917.00, 34

> <NMREDATA_1D_103Rh>
917.00, L=Rh34

$$$$

  ACD/LABS02122413512D

 27 29  0  0  0  0  0  0  0  0  2 V2000
   18.2207   -7.6363    0.0000 C    0  0  0  0  0  0  0  0  0  0  0  0
   18.8857   -6.4845    0.0000 C    0  0  0  0  0  0  0  0  0  0  0  0
   18.8857   -8.7882    0.0000 C    0  0  0  0  0  0  0  0  0  0  0  0
   20.2157   -6.4845    0.0000 C    0  0  0  0  0  0  0  0  0  0  0  0
   20.2157   -8.7882    0.0000 C    0  0  0  0  0  0  0  0  0  0  0  0
   20.8807   -7.6363    0.0000 C    0  0  0  0  0  0  0  0  0  0  0  0
   24.3362   -7.9450    0.0000 C    0  0  0  0  0  0  0  0  0  0  0  0
   24.3362   -9.2750    0.0000 C    0  0  0  0  0  0  0  0  0  0  0  0
   23.1844   -7.2800    0.0000 C    0  0  0  0  0  0  0  0  0  0  0  0
   23.1844   -9.9400    0.0000 C    0  0  0  0  0  0  0  0  0  0  0  0
   22.0326   -7.9450    0.0000 C    0  0  0  0  0  0  0  0  0  0  0  0
   22.0326   -9.2750    0.0000 C    0  0  0  0  0  0  0  0  0  0  0  0
   20.8807  -12.2436    0.0000 Rh   0  2  0  0  0  0  0  0  0  0  0  0
   21.5457  -11.0918    0.0000 C    0  0  0  0  0  0  0  0  0  0  0  0
   20.8807   -9.9400    0.0000 P    0  0  0  0  0  0  0  0  0  0  0  0
   19.7289  -10.6050    0.0000 N    0  0  0  0  0  0  0  0  0  0  0  0
   18.5771   -9.9400    0.0000 C    0  0  0  0  0  0  0  0  0  0  0  0
   17.4253  -10.6050    0.0000 C    0  0  0  0  0  0  0  0  0  0  0  0
   18.5771   -8.6100    0.0000 C    0  0  0  0  0  0  0  0  0  0  0  0
   16.2735   -9.9400    0.0000 C    0  0  0  0  0  0  0  0  0  0  0  0
   17.4253   -7.9450    0.0000 C    0  0  0  0  0  0  0  0  0  0  0  0
   16.2735   -8.6100    0.0000 C    0  0  0  0  0  0  0  0  0  0  0  0
   15.1217   -7.9450    0.0000 C    0  0  0  0  0  0  0  0  0  0  0  0
   19.5507  -12.2436    0.0000 C    0  0  0  0  0  0  0  0  0  0  0  0
   21.5457  -13.3954    0.0000 C    0  0  0  0  0  0  0  0  0  0  0  0
   18.2207  -12.2436    0.0000 O    0  0  0  0  0  0  0  0  0  0  0  0
   22.2107  -14.5472    0.0000 O    0  0  0  0  0  0  0  0  0  0  0  0
  1  2  1  0  0  0  0
  1  3  2  0  0  0  0
  2  4  2  0  0  0  0
  3  5  1  0  0  0  0
  4  6  1  0  0  0  0
  5  6  2  0  0  0  0
  7  8  1  0  0  0  0
  7  9  2  0  0  0  0
  8 10  2  0  0  0  0
  9 11  1  0  0  0  0
 10 12  1  0  0  0  0
 11 12  2  0  0  0  0
 13 14  1  0  0  0  0
 14 15  1  0  0  0  0
 15 16  2  0  0  0  0
 12 15  1  0  0  0  0
  5 15  1  0  0  0  0
 17 18  1  0  0  0  0
 17 19  2  0  0  0  0
 18 20  2  0  0  0  0
 19 21  1  0  0  0  0
 20 22  1  0  0  0  0
 21 22  2  0  0  0  0
 16 17  1  0  0  0  0
 22 23  1  0  0  0  0
 13 24  1  0  0  0  0
 13 25  1  0  0  0  0
 24 26  3  0  0  0  0
 25 27  3  0  0  0  0
M  END
> <NMREDATA_VERSION>
1.1

> <NMREDATA_LEVEL>
0

> <NMREDATA_SOLVENT>
C6D6

> <NMREDATA_TEMPERATURE>
295

> <NMREDATA_FORMULA>
C22H19NO2PRh

> <NMREDATA_SMILES>
[O]#C[Rh](CP(=Nc1ccc(cc1)C)(c1ccccc1)c1ccccc1)C#[O]

> <NMREDATA_ASSIGNMENT>
Rh13, -88.00, 13

> <NMREDATA_1D_103Rh>
-88.00, L=Rh13

$$$$

  ACD/LABS02122413522D

 48 53  0  0  0  0  0  0  0  0  2 V2000
   19.9437   -7.5883    0.0000 C    0  0  0  0  0  0  0  0  0  0  0  0
   21.2737   -7.5883    0.0000 C    0  0  0  0  0  0  0  0  0  0  0  0
   19.2787   -8.7402    0.0000 C    0  0  0  0  0  0  0  0  0  0  0  0
   21.9387   -8.7402    0.0000 C    0  0  0  0  0  0  0  0  0  0  0  0
   19.9437   -9.8920    0.0000 C    0  0  0  0  0  0  0  0  0  0  0  0
   21.2737   -9.8920    0.0000 C    0  0  0  0  0  0  0  0  0  0  0  0
   22.7342  -13.0388    0.0000 C    0  0  0  0  0  0  0  0  0  0  0  0
   21.5823  -13.7038    0.0000 C    0  0  0  0  0  0  0  0  0  0  0  0
   22.7342  -11.7088    0.0000 C    0  0  0  0  0  0  0  0  0  0  0  0
   20.4305  -13.0388    0.0000 C    0  0  0  0  0  0  0  0  0  0  0  0
   21.5823  -11.0438    0.0000 C    0  0  0  0  0  0  0  0  0  0  0  0
   20.4305  -11.7088    0.0000 C    0  0  0  0  0  0  0  0  0  0  0  0
   19.2787  -11.0438    0.0000 P    0  0  0  0  0  0  0  0  0  0  0  0
   18.1269  -10.3788    0.0000 N    0  0  0  0  0  0  0  0  0  0  0  0
   18.1269   -9.0488    0.0000 C    0  0  0  0  0  0  0  0  0  0  0  0
   16.9751   -8.3838    0.0000 C    0  0  0  0  0  0  0  0  0  0  0  0
   19.2787   -8.3838    0.0000 C    0  0  0  0  0  0  0  0  0  0  0  0
   16.9751   -7.0538    0.0000 C    0  0  0  0  0  0  0  0  0  0  0  0
   19.2787   -7.0538    0.0000 C    0  0  0  0  0  0  0  0  0  0  0  0
   18.1269   -6.3888    0.0000 C    0  0  0  0  0  0  0  0  0  0  0  0
   18.1269   -5.0588    0.0000 C    0  0  0  0  0  0  0  0  0  0  0  0
   13.2937  -14.4992    0.0000 C    0  0  0  0  0  0  0  0  0  0  0  0
   12.6287  -13.3474    0.0000 C    0  0  0  0  0  0  0  0  0  0  0  0
   14.6237  -14.4992    0.0000 C    0  0  0  0  0  0  0  0  0  0  0  0
   13.2937  -12.1956    0.0000 C    0  0  0  0  0  0  0  0  0  0  0  0
   15.2887  -13.3474    0.0000 C    0  0  0  0  0  0  0  0  0  0  0  0
   14.6237  -12.1956    0.0000 C    0  0  0  0  0  0  0  0  0  0  0  0
   16.6187  -17.3374    0.0000 C    0  0  0  0  0  0  0  0  0  0  0  0
   15.4669  -16.6724    0.0000 C    0  0  0  0  0  0  0  0  0  0  0  0
   17.7705  -16.6724    0.0000 C    0  0  0  0  0  0  0  0  0  0  0  0
   15.4669  -15.3424    0.0000 C    0  0  0  0  0  0  0  0  0  0  0  0
   17.7705  -15.3424    0.0000 C    0  0  0  0  0  0  0  0  0  0  0  0
   16.6187  -14.6774    0.0000 C    0  0  0  0  0  0  0  0  0  0  0  0
   18.6137  -12.1956    0.0000 Rh   0  3  0  0  0  0  0  0  0  0  0  0
   17.9487  -13.3474    0.0000 C    0  0  0  0  0  0  0  0  0  0  0  0
   16.6187  -13.3474    0.0000 P    0  0  0  0  0  0  0  0  0  0  0  0
   16.6187  -12.0174    0.0000 N    0  0  0  0  0  0  0  0  0  0  0  0
   15.4669  -11.3524    0.0000 C    0  0  0  0  0  0  0  0  0  0  0  0
   14.3151  -12.0174    0.0000 C    0  0  0  0  0  0  0  0  0  0  0  0
   15.4669  -10.0224    0.0000 C    0  0  0  0  0  0  0  0  0  0  0  0
   13.1633  -11.3524    0.0000 C    0  0  0  0  0  0  0  0  0  0  0  0
   14.3151   -9.3574    0.0000 C    0  0  0  0  0  0  0  0  0  0  0  0
   13.1633  -10.0224    0.0000 C    0  0  0  0  0  0  0  0  0  0  0  0
   12.0115   -9.3574    0.0000 C    0  0  0  0  0  0  0  0  0  0  0  0
   17.4619  -11.5306    0.0000 C    0  0  0  0  0  0  0  0  0  0  0  0
   19.7655  -12.8606    0.0000 C    0  0  0  0  0  0  0  0  0  0  0  0
   16.3101  -10.8656    0.0000 O    0  0  0  0  0  0  0  0  0  0  0  0
   20.9173  -13.5256    0.0000 O    0  0  0  0  0  0  0  0  0  0  0  0
  1  2  1  0  0  0  0
  1  3  2  0  0  0  0
  2  4  2  0  0  0  0
  3  5  1  0  0  0  0
  4  6  1  0  0  0  0
  5  6  2  0  0  0  0
  7  8  1  0  0  0  0
  7  9  2  0  0  0  0
  8 10  2  0  0  0  0
  9 11  1  0  0  0  0
 10 12  1  0  0  0  0
 11 12  2  0  0  0  0
 13 14  2  0  0  0  0
 12 13  1  0  0  0  0
  5 13  1  0  0  0  0
 15 16  1  0  0  0  0
 15 17  2  0  0  0  0
 16 18  2  0  0  0  0
 17 19  1  0  0  0  0
 18 20  1  0  0  0  0
 19 20  2  0  0  0  0
 14 15  1  0  0  0  0
 20 21  1  0  0  0  0
 22 23  1  0  0  0  0
 22 24  2  0  0  0  0
 23 25  2  0  0  0  0
 24 26  1  0  0  0  0
 25 27  1  0  0  0  0
 26 27  2  0  0  0  0
 28 29  1  0  0  0  0
 28 30  2  0  0  0  0
 29 31  2  0  0  0  0
 30 32  1  0  0  0  0
 31 33  1  0  0  0  0
 32 33  2  0  0  0  0
 34 35  1  0  0  0  0
 35 36  1  0  0  0  0
 36 37  2  0  0  0  0
 33 36  1  0  0  0  0
 26 36  1  0  0  0  0
 38 39  1  0  0  0  0
 38 40  2  0  0  0  0
 39 41  2  0  0  0  0
 40 42  1  0  0  0  0
 41 43  1  0  0  0  0
 42 43  2  0  0  0  0
 37 38  1  0  0  0  0
 43 44  1  0  0  0  0
 34 45  1  0  0  0  0
 34 46  1  0  0  0  0
 45 47  3  0  0  0  0
 46 48  3  0  0  0  0
 13 34  1  0  0  0  0
M  END
> <NMREDATA_VERSION>
1.1

> <NMREDATA_LEVEL>
0

> <NMREDATA_SOLVENT>
C6D6

> <NMREDATA_TEMPERATURE>
298

> <NMREDATA_FORMULA>
C41H36N2O2P2Rh

> <NMREDATA_SMILES>
[O]#C[Rh](P(=Nc1ccc(cc1)C)(c1ccccc1)c1ccccc1)(CP(=Nc1ccc(cc1)C)(c1ccccc1)c1ccccc1)C#[O]

> <NMREDATA_ASSIGNMENT>
Rh34, 11.00, 34

> <NMREDATA_1D_103Rh>
11.00, L=Rh34

$$$$
LaurenceCarlton-2008_00094.mol
  ChemDraw08202410362D

M  V30 COUNTS 42 49 0 0 0
  3.819345  0.297194  0.000000 C    0  0  0  0  0  0  0
  4.230413  1.009185  0.000000 C    0  0  0  0  0  0  0
  2.997209  0.297194  0.000000 C    0  0  0  0  0  0  0
  3.819345  1.721175  0.000000 C    0  0  0  0  0  0  0
  2.586141  1.009185  0.000000 C    0  0  0  0  0  0  0
  2.997209  1.721175  0.000000 C    0  0  0  0  0  0  0
  1.764006  1.831320  0.000000 C    0  0  0  0  0  0  0
  2.475996  2.242388  0.000000 C    0  0  0  0  0  0  0
  1.052015  2.242388  0.000000 C    0  0  0  0  0  0  0
  2.475996  3.064524  0.000000 C    0  0  0  0  0  0  0
  1.052015  3.064524  0.000000 C    0  0  0  0  0  0  0
  1.764006  3.475591  0.000000 C    0  0  0  0  0  0  0
  2.393798 -0.341410  0.000000 C    0  0  0  0  0  0  0
  1.764006  0.187049  0.000000 C    0  0  0  0  0  0  0
  2.251036 -1.151055  0.000000 C    0  0  0  0  0  0  0
  0.991451 -0.094138  0.000000 C    0  0  0  0  0  0  0
  1.478481 -1.432242  0.000000 C    0  0  0  0  0  0  0
  0.848689 -0.903784  0.000000 C    0  0  0  0  0  0  0
  0.041529 -1.629559  0.000000 C    0  0  0  0  0  0  0
  0.041529 -2.451695  0.000000 C    0  0  0  0  0  0  0
 -0.670461 -1.218491  0.000000 C    0  0  0  0  0  0  0
 -0.670461 -2.862763  0.000000 C    0  0  0  0  0  0  0
 -1.382451 -1.629559  0.000000 C    0  0  0  0  0  0  0
 -1.382451 -2.451695  0.000000 C    0  0  0  0  0  0  0
 -3.067884 -3.475591  0.000000 C    0  0  0  0  0  0  0
 -3.596343 -2.845799  0.000000 C    0  0  0  0  0  0  0
 -2.258238 -3.332829  0.000000 C    0  0  0  0  0  0  0
 -3.315156 -2.073244  0.000000 C    0  0  0  0  0  0  0
 -1.977051 -2.560274  0.000000 C    0  0  0  0  0  0  0
 -2.505510 -1.930482  0.000000 C    0  0  0  0  0  0  0
 -0.808293  1.009185  0.000000 Rh   0  0  0  0  0  0  0
 -2.094442 -1.218491  0.000000 P    0  0  0  0  0  0  0
 -4.230413 -0.807423  0.000000 C    0  0  0  0  0  0  0
 -3.518422 -1.218491  0.000000 C    0  0  0  0  0  0  0
 -4.230413  0.014712  0.000000 C    0  0  0  0  0  0  0
 -2.806432 -0.807423  0.000000 C    0  0  0  0  0  0  0
 -3.518422  0.425780  0.000000 C    0  0  0  0  0  0  0
 -2.806432  0.014712  0.000000 C    0  0  0  0  0  0  0
  1.764006  1.009185  0.000000 P    0  0  0  0  0  0  0
 -1.926532  1.521992  0.000000 C    0  0  0  0  0  0  0
 -1.515464  2.233982  0.000000 C    0  0  0  0  0  0  0
 -0.693329  2.233982  0.000000 C    0  0  0  0  0  0  0
  1  2  1  0  0  0  0
  1  3  2  0  0  0  0
  2  4  2  0  0  0  0
  3  5  1  0  0  0  0
  4  6  1  0  0  0  0
  5  6  2  0  0  0  0
  7  8  1  0  0  0  0
  7  9  2  0  0  0  0
  8 10  2  0  0  0  0
  9 11  1  0  0  0  0
 10 12  1  0  0  0  0
 11 12  2  0  0  0  0
 13 14  1  0  0  0  0
 13 15  2  0  0  0  0
 14 16  2  0  0  0  0
 15 17  1  0  0  0  0
 16 18  1  0  0  0  0
 17 18  2  0  0  0  0
 19 20  1  0  0  0  0
 19 21  2  0  0  0  0
 20 22  2  0  0  0  0
 21 23  1  0  0  0  0
 22 24  1  0  0  0  0
 23 24  2  0  0  0  0
 25 26  1  0  0  0  0
 25 27  2  0  0  0  0
 26 28  2  0  0  0  0
 27 29  1  0  0  0  0
 28 30  1  0  0  0  0
 29 30  2  0  0  0  0
 31 32  1  0  0  0  0
 33 34  1  0  0  0  0
 33 35  2  0  0  0  0
 34 36  2  0  0  0  0
 35 37  1  0  0  0  0
 36 38  1  0  0  0  0
 37 38  2  0  0  0  0
 32 36  1  0  0  0  0
 30 32  1  0  0  0  0
 23 32  1  0  0  0  0
 31 39  1  0  0  0  0
 14 39  1  0  0  0  0
  7 39  1  0  0  0  0
  5 39  1  0  0  0  0
 40 41  1  0  0  0  0
 41 42  1  0  0  0  0
 40 31  1  0  0  0  0
 41 31  1  0  0  0  0
 42 31  1  0  0  0  0
M  END
> <NMREDATA_VERSION>
1.1

> <NMREDATA_LEVEL>
0

> <NMREDATA_SOLVENT>
C6D6

> <NMREDATA_TEMPERATURE>
310

> <NMREDATA_FORMULA>
C39H37P2Rh

> <NMREDATA_SMILES>
c1ccc(cc1)P([Rh]12(CC2C1)P(c1ccccc1)(c1ccccc1)c1ccccc1)(c1ccccc1)c1ccccc1

> <NMREDATA_ASSIGNMENT>
Rh31, -1021.00, 31

> <NMREDATA_1D_103Rh>
-1021.00, L=Rh31

$$$$
LaurenceCarlton-2008_00095.mol
  ChemDraw08202410362D

M  V30 COUNTS 40 47 0 0 0
  1.423981  3.692690  0.000000 C    0  0  0  0  0  0  0
  2.135971  3.281622  0.000000 C    0  0  0  0  0  0  0
  0.711990  3.281622  0.000000 C    0  0  0  0  0  0  0
  2.135971  2.459486  0.000000 C    0  0  0  0  0  0  0
  0.711990  2.459486  0.000000 C    0  0  0  0  0  0  0
  1.423981  2.048418  0.000000 C    0  0  0  0  0  0  0
  2.847962 -0.417989  0.000000 C    0  0  0  0  0  0  0
  2.135971 -0.006921  0.000000 C    0  0  0  0  0  0  0
  3.559953 -0.006921  0.000000 C    0  0  0  0  0  0  0
  2.135971  0.815214  0.000000 C    0  0  0  0  0  0  0
  3.559953  0.815214  0.000000 C    0  0  0  0  0  0  0
  2.847962  1.226282  0.000000 C    0  0  0  0  0  0  0
 -3.559953  0.815214  0.000000 C    0  0  0  0  0  0  0
 -2.847962  1.226282  0.000000 C    0  0  0  0  0  0  0
 -3.559953 -0.006921  0.000000 C    0  0  0  0  0  0  0
 -2.135971  0.815214  0.000000 C    0  0  0  0  0  0  0
 -2.847962 -0.417989  0.000000 C    0  0  0  0  0  0  0
 -2.135971 -0.006921  0.000000 C    0  0  0  0  0  0  0
 -0.711990  3.281622  0.000000 C    0  0  0  0  0  0  0
 -0.711990  2.459486  0.000000 C    0  0  0  0  0  0  0
 -1.423981  3.692690  0.000000 C    0  0  0  0  0  0  0
 -1.423981  2.048418  0.000000 C    0  0  0  0  0  0  0
 -2.135971  3.281622  0.000000 C    0  0  0  0  0  0  0
 -2.135971  2.459486  0.000000 C    0  0  0  0  0  0  0
  0.122616 -0.955519  0.000000 Rh   0  0  0  0  0  0  0
 -0.711990  1.640214  0.000000 C    0  0  0  0  0  0  0
 -0.711990  0.815214  0.000000 C    0  0  0  0  0  0  0
  0.000000  1.226282  0.000000 C    0  0  0  0  0  0  0
  0.711990  0.815214  0.000000 C    0  0  0  0  0  0  0
  0.711990  1.640214  0.000000 C    0  0  0  0  0  0  0
 -1.423981  1.226282  0.000000 P    0  0  0  0  0  0  0
  1.423981  1.226282  0.000000 P    0  0  0  0  0  0  0
  1.331746 -1.568037  0.000000 C    0  0  0  0  0  0  0
  0.628743 -1.994294  0.000000 C    0  0  0  0  0  0  0
  2.129845 -1.765382  0.000000 C    0  0  0  0  0  0  0
  2.556101 -2.468384  0.000000 C    0  0  0  0  0  0  0
  0.431435 -2.792343  0.000000 C    0  0  0  0  0  0  0
  2.358756 -3.266483  0.000000 C    0  0  0  0  0  0  0
  0.857655 -3.495395  0.000000 C    0  0  0  0  0  0  0
  1.655790 -3.692690  0.000000 C    0  0  0  0  0  0  0
  1  2  1  0  0  0  0
  1  3  2  0  0  0  0
  2  4  2  0  0  0  0
  3  5  1  0  0  0  0
  4  6  1  0  0  0  0
  5  6  2  0  0  0  0
  7  8  1  0  0  0  0
  7  9  2  0  0  0  0
  8 10  2  0  0  0  0
  9 11  1  0  0  0  0
 10 12  1  0  0  0  0
 11 12  2  0  0  0  0
 13 14  1  0  0  0  0
 13 15  2  0  0  0  0
 14 16  2  0  0  0  0
 15 17  1  0  0  0  0
 16 18  1  0  0  0  0
 17 18  2  0  0  0  0
 19 20  1  0  0  0  0
 19 21  2  0  0  0  0
 20 22  2  0  0  0  0
 21 23  1  0  0  0  0
 22 24  1  0  0  0  0
 23 24  2  0  0  0  0
 26 27  1  0  0  0  0
 27 28  1  0  0  0  0
 28 29  1  0  0  0  0
 29 30  1  0  0  0  0
 27 31  1  0  0  0  0
 29 32  1  0  0  0  0
 22 31  1  0  0  0  0
 16 31  1  0  0  0  0
 10 32  1  0  0  0  0
  6 32  1  0  0  0  0
 33 34  1  0  0  0  0
 33 35  1  0  0  0  0
 34 37  1  0  0  0  0
 35 36  1  0  0  0  0
 36 38  1  0  0  0  0
 37 39  1  0  0  0  0
 38 40  1  0  0  0  0
 39 40  1  0  0  0  0
 37 25  1  0  0  0  0
 34 25  1  0  0  0  0
 33 25  1  0  0  0  0
 31 25  1  0  0  0  0
 32 25  1  0  0  0  0
M  END
> <NMREDATA_VERSION>
1.1

> <NMREDATA_LEVEL>
0

> <NMREDATA_SOLVENT>
THF

> <NMREDATA_TEMPERATURE>
298

> <NMREDATA_FORMULA>
C37H45P2Rh

> <NMREDATA_SMILES>
CC1CC(C)P([Rh]23(P1(c1ccccc1)c1ccccc1)C1C2CCCCCC31)(c1ccccc1)c1ccccc1

> <NMREDATA_ASSIGNMENT>
Rh25, -1002.00, 25

> <NMREDATA_1D_103Rh>
-1002.00, L=Rh25

$$$$
LaurenceCarlton-2008_00096.mol
  ChemDraw08202410362D

M  V30 COUNTS 44 52 0 0 0
  1.120924 -0.741425  0.000000 Rh   0  0  0  0  0  0  0
 -0.832549  2.893524  0.000000 C    0  0  0  0  0  0  0
 -0.424345  2.186495  0.000000 C    0  0  0  0  0  0  0
 -0.424345  3.600553  0.000000 C    0  0  0  0  0  0  0
  0.392061  2.186495  0.000000 C    0  0  0  0  0  0  0
  0.392061  3.600553  0.000000 C    0  0  0  0  0  0  0
  0.800264  2.893524  0.000000 C    0  0  0  0  0  0  0
  2.024874  2.186495  0.000000 C    0  0  0  0  0  0  0
  2.841281  2.186495  0.000000 C    0  0  0  0  0  0  0
  1.616671  1.479466  0.000000 C    0  0  0  0  0  0  0
  3.249484  1.479466  0.000000 C    0  0  0  0  0  0  0
  2.024874  0.772438  0.000000 C    0  0  0  0  0  0  0
  2.841281  0.772438  0.000000 C    0  0  0  0  0  0  0
 -2.297146 -0.381311  0.000000 C    0  0  0  0  0  0  0
 -3.103501 -0.253597  0.000000 C    0  0  0  0  0  0  0
 -2.004572 -1.143493  0.000000 C    0  0  0  0  0  0  0
 -3.617283 -0.888064  0.000000 C    0  0  0  0  0  0  0
 -2.518353 -1.777960  0.000000 C    0  0  0  0  0  0  0
 -3.324708 -1.650246  0.000000 C    0  0  0  0  0  0  0
 -0.945934 -2.047655  0.000000 C    0  0  0  0  0  0  0
 -1.492216 -2.654363  0.000000 C    0  0  0  0  0  0  0
 -0.147367 -2.217395  0.000000 C    0  0  0  0  0  0  0
 -1.239932 -3.430812  0.000000 C    0  0  0  0  0  0  0
  0.104916 -2.993845  0.000000 C    0  0  0  0  0  0  0
 -0.441366 -3.600553  0.000000 C    0  0  0  0  0  0  0
 -0.651934 -0.664498  0.000000 C    0  0  0  0  0  0  0
 -1.198217 -1.271207  0.000000 P    0  0  0  0  0  0  0
  0.800264  1.479466  0.000000 P    0  0  0  0  0  0  0
 -1.680666  0.364234  0.000000 O    0  0  0  0  0  0  0
 -1.680666  1.180641  0.000000 C    0  0  0  0  0  0  0
 -0.904218  0.111950  0.000000 C    0  0  0  0  0  0  0
 -0.904218  1.432924  0.000000 O    0  0  0  0  0  0  0
 -0.424345  0.772438  0.000000 C    0  0  0  0  0  0  0
 -2.492600  1.265979  0.000000 C    0  0  0  0  0  0  0
 -2.012729  1.926465  0.000000 C    0  0  0  0  0  0  0
  0.392061  0.772438  0.000000 C    0  0  0  0  0  0  0
  3.511461 -2.087357  0.000000 C    0  0  0  0  0  0  0
  3.617283 -1.468012  0.000000 C    0  0  0  0  0  0  0
  3.254167 -0.955242  0.000000 C    0  0  0  0  0  0  0
  2.634822 -0.849420  0.000000 C    0  0  0  0  0  0  0
  2.122052 -1.212535  0.000000 C    0  0  0  0  0  0  0
  2.016229 -1.831880  0.000000 C    0  0  0  0  0  0  0
  2.379345 -2.344650  0.000000 C    0  0  0  0  0  0  0
  2.998690 -2.450473  0.000000 C    0  0  0  0  0  0  0
  2  3  1  0  0  0  0
  2  4  2  0  0  0  0
  3  5  2  0  0  0  0
  4  6  1  0  0  0  0
  5  7  1  0  0  0  0
  6  7  2  0  0  0  0
  8  9  1  0  0  0  0
  8 10  2  0  0  0  0
  9 11  2  0  0  0  0
 10 12  1  0  0  0  0
 11 13  1  0  0  0  0
 12 13  2  0  0  0  0
 14 15  1  0  0  0  0
 14 16  2  0  0  0  0
 15 17  2  0  0  0  0
 16 18  1  0  0  0  0
 17 19  1  0  0  0  0
 18 19  2  0  0  0  0
 20 21  1  0  0  0  0
 20 22  2  0  0  0  0
 21 23  2  0  0  0  0
 22 24  1  0  0  0  0
 23 25  1  0  0  0  0
 24 25  2  0  0  0  0
 26 27  1  0  0  0  0
 20 27  1  0  0  0  0
 16 27  1  0  0  0  0
 10 28  1  0  0  0  0
  5 28  1  0  0  0  0
 29 30  1  0  0  0  0
 29 31  1  0  0  0  0
 30 32  1  0  0  0  0
 31 33  1  0  0  0  0
 32 33  1  0  0  0  0
 30 34  1  0  0  0  0
 30 35  1  0  0  0  0
 28 36  1  0  0  0  0
 37 38  1  0  0  0  0
 38 39  1  0  0  0  0
 39 40  1  0  0  0  0
 40 41  1  0  0  0  0
 41 42  1  0  0  0  0
 42 43  1  0  0  0  0
 43 44  1  0  0  0  0
 44 37  1  0  0  0  0
 42  1  1  0  0  0  0
  1 41  1  0  0  0  0
 40  1  1  0  0  0  0
 36 33  1  0  0  0  0
 31 26  1  0  0  0  0
 28  1  1  0  0  0  0
 27  1  1  0  0  0  0
M  END
> <NMREDATA_VERSION>
1.1

> <NMREDATA_LEVEL>
0

> <NMREDATA_SOLVENT>
C6D6

> <NMREDATA_TEMPERATURE>
298

> <NMREDATA_FORMULA>
C39H47O2P2Rh

> <NMREDATA_SMILES>
CC1(C)OC2C(O1)CP([Rh]13(P(C2)(c2ccccc2)c2ccccc2)C2C1CCCCCC32)(c1ccccc1)c1ccccc1

> <NMREDATA_ASSIGNMENT>
Rh1, -1015.00, 1

> <NMREDATA_1D_103Rh>
-1015.00, L=Rh1

$$$$
LaurenceCarlton-2008_00097.mol
  ChemDraw08202410362D

M  V30 COUNTS 26 34 0 0 0
  1.369636  1.365729  0.000000 C    0  0  0  0  0  0  0
  1.369636  0.540721  0.000000 C    0  0  0  0  0  0  0
  0.655167  1.778231  0.000000 C    0  0  0  0  0  0  0
  0.655167  0.128217  0.000000 C    0  0  0  0  0  0  0
 -0.059301  1.365729  0.000000 C    0  0  0  0  0  0  0
 -0.059301  0.540721  0.000000 C    0  0  0  0  0  0  0
  0.655167  2.603239  0.000000 C    0  0  0  0  0  0  0
  2.084105  1.778231  0.000000 C    0  0  0  0  0  0  0
  2.084105  0.128217  0.000000 C    0  0  0  0  0  0  0
  0.655167 -0.696790  0.000000 C    0  0  0  0  0  0  0
 -0.773770  0.128217  0.000000 C    0  0  0  0  0  0  0
 -0.773770  1.778231  0.000000 C    0  0  0  0  0  0  0
  3.527806  0.953224  0.000000 Rh   0  3  0  0  0  0  0
  3.895399 -1.393828  0.000000 C    0  0  0  0  0  0  0
  4.307903 -0.679360  0.000000 C    0  0  0  0  0  0  0
  4.108909 -2.190735  0.000000 C    0  0  0  0  0  0  0
  4.823377 -2.603239  0.000000 C    0  0  0  0  0  0  0
  5.104810 -0.465850  0.000000 C    0  0  0  0  0  0  0
  5.620285 -2.389729  0.000000 C    0  0  0  0  0  0  0
  5.819279 -0.878353  0.000000 C    0  0  0  0  0  0  0
  6.032788 -1.675261  0.000000 C    0  0  0  0  0  0  0
 -5.524943 -0.176353  0.000000 B    0  5  0  0  0  0  0
 -5.818162  0.331491  0.000000 F    0  0  0  0  0  0  0
 -5.017036  0.116866  0.000000 F    0  0  0  0  0  0  0
 -6.032788 -0.469572  0.000000 F    0  0  0  0  0  0  0
 -5.231725 -0.684260  0.000000 F    0  0  0  0  0  0  0
  1  2  1  0  0  0  0
  1  3  1  0  0  0  0
  2  4  1  0  0  0  0
  3  5  1  0  0  0  0
  4  6  1  0  0  0  0
  5  6  1  0  0  0  0
  3  7  1  0  0  0  0
  1  8  1  0  0  0  0
  2  9  1  0  0  0  0
  4 10  1  0  0  0  0
  6 11  1  0  0  0  0
  5 12  1  0  0  0  0
 14 15  1  0  0  0  0
 14 16  1  0  0  0  0
 15 18  1  0  0  0  0
 16 17  1  0  0  0  0
 17 19  2  0  0  0  0
 18 20  1  0  0  0  0
 19 21  1  0  0  0  0
 20 21  2  0  0  0  0
  1 13  1  0  0  0  0
  2 13  1  0  0  0  0
 13  3  1  0  0  0  0
  4 13  1  0  0  0  0
 13  6  1  0  0  0  0
  5 13  1  0  0  0  0
 18 13  1  0  0  0  0
 15 13  1  0  0  0  0
 14 13  1  0  0  0  0
 16 13  1  0  0  0  0
 22 23  1  0  0  0  0
 22 24  1  0  0  0  0
 22 25  1  0  0  0  0
 22 26  1  0  0  0  0
M  END
> <NMREDATA_VERSION>
1.1

> <NMREDATA_LEVEL>
0

> <NMREDATA_SOLVENT>
CD2Cl2

> <NMREDATA_TEMPERATURE>
300

> <NMREDATA_FORMULA>
C20H26BF4Rh

> <NMREDATA_SMILES>
CC12C3([Rh]4567892(C1(C)C5(C9(C34C)C)C)C1C8C7C6C=CC=C1)C.F[B](F)(F)F

> <NMREDATA_ASSIGNMENT>
Rh13, -52.00, 13

> <NMREDATA_1D_103Rh>
-52.00, L=Rh13

$$$$
LaurenceCarlton-2008_00100.mol
  ChemDraw08202410362D

M  V30 COUNTS 44 52 0 0 0
 -4.955365 -1.130378  0.000000 B    0  5  0  0  0  0  0
 -5.248762 -0.622225  0.000000 F    0  0  0  0  0  0  0
 -4.447149 -0.836981  0.000000 F    0  0  0  0  0  0  0
 -5.463518 -1.423775  0.000000 F    0  0  0  0  0  0  0
 -4.661968 -1.638593  0.000000 F    0  0  0  0  0  0  0
  4.034575  0.405155  0.000000 C    0  0  0  0  0  0  0
  4.749046 -0.007345  0.000000 C    0  0  0  0  0  0  0
  3.320104 -0.007345  0.000000 C    0  0  0  0  0  0  0
  4.749046 -0.832345  0.000000 C    0  0  0  0  0  0  0
  3.320104 -0.832345  0.000000 C    0  0  0  0  0  0  0
  4.034575 -1.244845  0.000000 C    0  0  0  0  0  0  0
  2.605633  0.405155  0.000000 C    0  0  0  0  0  0  0
  4.034575  1.230156  0.000000 C    0  0  0  0  0  0  0
  5.463518  0.405155  0.000000 C    0  0  0  0  0  0  0
  5.463518 -1.244845  0.000000 C    0  0  0  0  0  0  0
  4.034575 -2.069845  0.000000 C    0  0  0  0  0  0  0
  2.605633 -1.244845  0.000000 C    0  0  0  0  0  0  0
  1.339194 -0.051153  0.000000 Rh   0  3  0  0  0  0  0
 -0.022955 -1.011132  0.000000 P    0  0  0  0  0  0  0
 -0.806365 -1.268117  0.000000 C    0  0  0  0  0  0  0
  0.455265 -1.683391  0.000000 C    0  0  0  0  0  0  0
 -0.811177 -2.094757  0.000000 C    0  0  0  0  0  0  0
 -0.025313 -2.353183  0.000000 C    0  0  0  0  0  0  0
  1.203454  1.662107  0.000000 C    0  0  0  0  0  0  0
  1.075555  2.474093  0.000000 C    0  0  0  0  0  0  0
  0.468065  1.288169  0.000000 P    0  0  0  0  0  0  0
  0.260123  2.604119  0.000000 C    0  0  0  0  0  0  0
 -0.116764  1.868604  0.000000 C    0  0  0  0  0  0  0
 -1.147466  0.008574  0.000000 C    0  0  0  0  0  0  0
 -1.928306 -0.239690  0.000000 C    0  0  0  0  0  0  0
 -0.974998  0.817113  0.000000 C    0  0  0  0  0  0  0
 -2.540563  0.305584  0.000000 C    0  0  0  0  0  0  0
 -1.589991  1.367030  0.000000 C    0  0  0  0  0  0  0
 -2.368149  1.114154  0.000000 C    0  0  0  0  0  0  0
  1.992433  1.420988  0.000000 C    0  0  0  0  0  0  0
  2.595737  1.983703  0.000000 C    0  0  0  0  0  0  0
 -0.931511  1.738942  0.000000 C    0  0  0  0  0  0  0
 -1.451175  2.379703  0.000000 C    0  0  0  0  0  0  0
  1.267440 -1.828301  0.000000 C    0  0  0  0  0  0  0
  1.548030 -2.604119  0.000000 C    0  0  0  0  0  0  0
 -1.473768 -0.783143  0.000000 C    0  0  0  0  0  0  0
 -2.227468 -1.118644  0.000000 C    0  0  0  0  0  0  0
  1.552720 -0.848042  0.000000 C    0  0  0  0  0  0  0
  0.969357 -1.431405  0.000000 C    0  0  0  0  0  0  0
  1  2  1  0  0  0  0
  1  3  1  0  0  0  0
  1  4  1  0  0  0  0
  1  5  1  0  0  0  0
  6  7  1  0  0  0  0
  6  8  1  0  0  0  0
  7  9  1  0  0  0  0
  8 10  1  0  0  0  0
  9 11  1  0  0  0  0
 10 11  1  0  0  0  0
  8 12  1  0  0  0  0
  6 13  1  0  0  0  0
  7 14  1  0  0  0  0
  9 15  1  0  0  0  0
 11 16  1  0  0  0  0
 10 17  1  0  0  0  0
 19 20  1  0  0  0  0
 19 21  1  0  0  0  0
 20 22  1  0  0  0  0
 21 23  1  0  0  0  0
 22 23  1  0  0  0  0
 24 25  1  0  0  0  0
 24 26  1  0  0  0  0
 25 27  1  0  0  0  0
 26 28  1  0  0  0  0
 27 28  1  0  0  0  0
 29 30  1  0  0  0  0
 29 31  2  0  0  0  0
 30 32  2  0  0  0  0
 31 33  1  0  0  0  0
 32 34  1  0  0  0  0
 33 34  2  0  0  0  0
 26 31  1  0  0  0  0
 19 29  1  0  0  0  0
 24 35  1  0  0  0  0
 35 36  1  0  0  0  0
 28 37  1  0  0  0  0
 37 38  1  0  0  0  0
 21 39  1  0  0  0  0
 39 40  1  0  0  0  0
 20 41  1  0  0  0  0
 41 42  1  0  0  0  0
 19 18  1  0  0  0  0
 26 18  1  0  0  0  0
 18 43  1  0  0  0  0
 43 44  1  0  0  0  0
 18  8  1  0  0  0  0
 10 18  1  0  0  0  0
 11 18  1  0  0  0  0
  6 18  1  0  0  0  0
 18  7  1  0  0  0  0
  9 18  1  0  0  0  0
M  END
> <NMREDATA_VERSION>
1.1

> <NMREDATA_LEVEL>
0

> <NMREDATA_SOLVENT>
CD3OD

> <NMREDATA_TEMPERATURE>
298

> <NMREDATA_FORMULA>
C36H61BF4P2Rh

> <NMREDATA_SMILES>
F[B](F)(F)F.CCC1CCC(P21c1ccccc1P1([Rh]345672(CC)C2(C6(C4(C5(C3(C72C)C)C)C)C)C)C(CC)CCC1CC)CC

> <NMREDATA_ASSIGNMENT>
Rh18, -1116.00, 18

> <NMREDATA_1D_103Rh>
-1116.00, L=Rh18

$$$$
LaurenceCarlton-2008_00101.mol
  ChemDraw08202410362D

M  V30 COUNTS 48 57 0 0 0
 -5.817943  2.338251  0.000000 B    0  5  0  0  0  0  0
 -6.325787  2.045032  0.000000 F    0  0  0  0  0  0  0
 -5.524724  1.830344  0.000000 F    0  0  0  0  0  0  0
 -6.111161  2.846096  0.000000 F    0  0  0  0  0  0  0
 -5.310036  2.631469  0.000000 F    0  0  0  0  0  0  0
  1.513055 -1.230186  0.000000 Rh   0  3  0  0  0  0  0
  2.871225  4.147764  0.000000 C    0  0  0  0  0  0  0
  3.583215  3.736696  0.000000 C    0  0  0  0  0  0  0
  2.159235  3.736696  0.000000 C    0  0  0  0  0  0  0
  3.583215  2.914560  0.000000 C    0  0  0  0  0  0  0
  2.159235  2.914560  0.000000 C    0  0  0  0  0  0  0
  2.871225  2.503492  0.000000 C    0  0  0  0  0  0  0
 -0.204446  1.567300  0.000000 C    0  0  0  0  0  0  0
  0.278793  0.902178  0.000000 C    0  0  0  0  0  0  0
 -1.022078  1.481363  0.000000 C    0  0  0  0  0  0  0
 -0.055600  0.151120  0.000000 C    0  0  0  0  0  0  0
 -1.356471  0.730305  0.000000 C    0  0  0  0  0  0  0
 -0.873231  0.065183  0.000000 C    0  0  0  0  0  0  0
  0.129947  2.318358  0.000000 P    0  0  0  0  0  0  0
  0.272709  3.128004  0.000000 C    0  0  0  0  0  0  0
  1.086844  3.242423  0.000000 C    0  0  0  0  0  0  0
  1.447244  2.503492  0.000000 P    0  0  0  0  0  0  0
 -1.692095  3.506431  0.000000 C    0  0  0  0  0  0  0
 -0.894380  3.307538  0.000000 C    0  0  0  0  0  0  0
 -2.263198  2.915036  0.000000 C    0  0  0  0  0  0  0
 -0.667769  2.517251  0.000000 C    0  0  0  0  0  0  0
 -2.036587  2.124748  0.000000 C    0  0  0  0  0  0  0
 -1.238872  1.925856  0.000000 C    0  0  0  0  0  0  0
  3.032620  0.614115  0.000000 C    0  0  0  0  0  0  0
  2.222975  0.471352  0.000000 C    0  0  0  0  0  0  0
  3.313807  1.386669  0.000000 C    0  0  0  0  0  0  0
  1.694516  1.101145  0.000000 C    0  0  0  0  0  0  0
  2.785349  2.016462  0.000000 C    0  0  0  0  0  0  0
  1.975703  1.873700  0.000000 C    0  0  0  0  0  0  0
 -0.323276  3.898933  0.000000 C    0  0  0  0  0  0  0
  1.447244  4.147764  0.000000 C    0  0  0  0  0  0  0
  4.182375 -2.085264  0.000000 C    0  0  0  0  0  0  0
  4.182375 -2.910264  0.000000 C    0  0  0  0  0  0  0
  4.896846 -3.322764  0.000000 C    0  0  0  0  0  0  0
  5.611316 -2.910264  0.000000 C    0  0  0  0  0  0  0
  5.611316 -2.085264  0.000000 C    0  0  0  0  0  0  0
  4.896846 -1.672764  0.000000 C    0  0  0  0  0  0  0
  4.896846 -0.847764  0.000000 C    0  0  0  0  0  0  0
  6.325787 -1.672764  0.000000 C    0  0  0  0  0  0  0
  6.325787 -3.322764  0.000000 C    0  0  0  0  0  0  0
  4.896846 -4.147764  0.000000 C    0  0  0  0  0  0  0
  3.467904 -3.322764  0.000000 C    0  0  0  0  0  0  0
  3.467904 -1.672764  0.000000 C    0  0  0  0  0  0  0
  1  2  1  0  0  0  0
  1  3  1  0  0  0  0
  1  4  1  0  0  0  0
  1  5  1  0  0  0  0
  7  8  1  0  0  0  0
  7  9  2  0  0  0  0
  8 10  2  0  0  0  0
  9 11  1  0  0  0  0
 10 12  1  0  0  0  0
 11 12  2  0  0  0  0
 13 14  1  0  0  0  0
 13 15  2  0  0  0  0
 14 16  2  0  0  0  0
 15 17  1  0  0  0  0
 16 18  1  0  0  0  0
 17 18  2  0  0  0  0
 19 20  1  0  0  0  0
 20 21  1  0  0  0  0
 21 22  1  0  0  0  0
 23 24  1  0  0  0  0
 23 25  2  0  0  0  0
 24 26  2  0  0  0  0
 25 27  1  0  0  0  0
 26 28  1  0  0  0  0
 27 28  2  0  0  0  0
 19 26  1  0  0  0  0
 13 19  1  0  0  0  0
 29 30  1  0  0  0  0
 29 31  2  0  0  0  0
 30 32  2  0  0  0  0
 31 33  1  0  0  0  0
 32 34  1  0  0  0  0
 33 34  2  0  0  0  0
 22 34  1  0  0  0  0
 11 22  1  0  0  0  0
 24 35  1  0  0  0  0
  9 36  1  0  0  0  0
  6 19  1  0  0  0  0
  6 22  1  0  0  0  0
 37 38  1  0  0  0  0
 38 39  1  0  0  0  0
 39 40  1  0  0  0  0
 40 41  1  0  0  0  0
 41 42  1  0  0  0  0
 42 37  1  0  0  0  0
 42 43  1  0  0  0  0
 41 44  1  0  0  0  0
 40 45  1  0  0  0  0
 39 46  1  0  0  0  0
 38 47  1  0  0  0  0
 37 48  1  0  0  0  0
 42  6  1  0  0  0  0
  6 37  1  0  0  0  0
 38  6  1  0  0  0  0
  6 39  1  0  0  0  0
 40  6  1  0  0  0  0
 41  6  1  0  0  0  0
M  END
> <NMREDATA_VERSION>
1.1

> <NMREDATA_LEVEL>
0

> <NMREDATA_SOLVENT>
CD3OD

> <NMREDATA_TEMPERATURE>
298

> <NMREDATA_FORMULA>
C40H48BF4P2Rh

> <NMREDATA_SMILES>
F[B](F)(F)F.Cc1ccccc1P1(CCP([Rh]234561C1(C5(C3(C4(C2(C61C)C)C)C)C)C)(c1ccccc1)c1ccccc1C)c1ccccc1

> <NMREDATA_ASSIGNMENT>
Rh6, -1006.00, 6

> <NMREDATA_1D_103Rh>
-1006.00, L=Rh6

$$$$
LaurenceCarlton-2008_00102.mol
  ChemDraw08202410362D

M  V30 COUNTS 57 68 0 0 1
  5.500630  1.561113  0.000000 C    0  0  0  0  0  0  0
  5.500630  0.736113  0.000000 C    0  0  0  0  0  0  0
  4.786106  1.973613  0.000000 C    0  0  0  0  0  0  0
  4.786106  0.323613  0.000000 C    0  0  0  0  0  0  0
  4.071644  1.561113  0.000000 C    0  0  0  0  0  0  0
  4.071644  0.736113  0.000000 C    0  0  0  0  0  0  0
  6.215093  1.973613  0.000000 C    0  0  0  0  0  0  0
  1.764434 -0.570984  0.000000 Rh   0  3  0  0  0  0  0
 -5.853902  1.612921  0.000000 C    0  0  0  0  0  0  0
 -5.028969  1.623411  0.000000 C    0  0  0  0  0  0  0
 -6.257284  0.893210  0.000000 O    0  0  0  0  0  0  0
 -4.607417  0.914188  0.000000 C    0  0  0  0  0  0  0
 -5.835735  0.184112  0.000000 C    0  0  0  0  0  0  0
 -5.010802  0.194600  0.000000 C    0  0  0  0  0  0  0
 -6.185033  2.246122  0.000000 C    0  0  0  0  0  0  0
 -4.545342  2.286822  0.000000 O    0  0  0  0  0  0  0
 -3.970467  0.852746  0.000000 O    0  0  0  0  0  0  0
 -4.848564 -0.450672  0.000000 O    0  0  0  0  0  0  0
 -6.456019 -0.679859  0.000000 O    0  0  0  0  0  0  0
 -5.807042  3.006392  0.000000 O    0  0  0  0  0  0  0
 -3.145467  0.852746  0.000000 P    0  0  0  0  0  0  0
 -4.635038 -1.247562  0.000000 P    0  0  0  0  0  0  0
 -5.218401 -1.830924  0.000000 C    0  0  0  0  0  0  0
 -3.977798 -1.858548  0.000000 C    0  0  0  0  0  0  0
 -6.015290 -1.617399  0.000000 C    0  0  0  0  0  0  0
 -6.598653 -2.200762  0.000000 C    0  0  0  0  0  0  0
 -6.385128 -2.997651  0.000000 C    0  0  0  0  0  0  0
 -5.588239 -3.211176  0.000000 C    0  0  0  0  0  0  0
 -5.004876 -2.627814  0.000000 C    0  0  0  0  0  0  0
 -4.279179 -2.626529  0.000000 C    0  0  0  0  0  0  0
 -3.764779 -3.271523  0.000000 C    0  0  0  0  0  0  0
 -2.948997 -3.148536  0.000000 C    0  0  0  0  0  0  0
 -2.647616 -2.380555  0.000000 C    0  0  0  0  0  0  0
 -3.162016 -1.735561  0.000000 C    0  0  0  0  0  0  0
 -3.145467  1.677746  0.000000 C    0  0  0  0  0  0  0
 -2.348578  1.066271  0.000000 C    0  0  0  0  0  0  0
 -1.765215  0.482909  0.000000 C    0  0  0  0  0  0  0
 -0.968326  0.696434  0.000000 C    0  0  0  0  0  0  0
 -0.754800  1.493322  0.000000 C    0  0  0  0  0  0  0
 -1.338163  2.076686  0.000000 C    0  0  0  0  0  0  0
 -2.135052  1.863161  0.000000 C    0  0  0  0  0  0  0
 -2.348578  1.891271  0.000000 C    0  0  0  0  0  0  0
 -2.135052  2.688161  0.000000 C    0  0  0  0  0  0  0
 -2.718415  3.271523  0.000000 C    0  0  0  0  0  0  0
 -3.515304  3.057998  0.000000 C    0  0  0  0  0  0  0
 -3.728830  2.261109  0.000000 C    0  0  0  0  0  0  0
 -7.281019 -0.679859  0.000000 C    0  0  0  0  0  0  0
 -7.693519  0.034612  0.000000 C    0  0  0  0  0  0  0
 -8.518519  0.034612  0.000000 C    0  0  0  0  0  0  0
 -8.931019 -0.679859  0.000000 C    0  0  0  0  0  0  0
 -8.518519 -1.394330  0.000000 C    0  0  0  0  0  0  0
 -7.693519 -1.394330  0.000000 C    0  0  0  0  0  0  0
  7.738242 -0.411940  0.000000 B    0  5  0  0  0  0  0
  7.907212  0.532345  0.000000 F    0  0  0  0  0  0  0
  8.931019 -0.014327  0.000000 F    0  0  0  0  0  0  0
  6.883467 -0.173372  0.000000 F    0  0  0  0  0  0  0
  7.917199 -1.316463  0.000000 F    0  0  0  0  0  0  0
  1  2  1  0  0  0  0
  1  3  1  0  0  0  0
  2  4  1  0  0  0  0
  3  5  1  0  0  0  0
  4  6  1  0  0  0  0
  5  6  1  0  0  0  0
  1  7  1  0  0  0  0
  9 10  1  0  0  0  0
  9 11  1  0  0  0  0
 10 12  1  0  0  0  0
 11 13  1  0  0  0  0
 12 14  1  0  0  0  0
 13 14  1  0  0  0  0
  9 15  1  1  0  0  0
 10 16  1  6  0  0  0
 12 17  1  1  0  0  0
 14 18  1  6  0  0  0
 13 19  1  1  0  0  0
 15 20  1  0  0  0  0
  4  8  1  0  0  0  0
  6  8  1  0  0  0  0
  5  8  1  0  0  0  0
  3  8  1  0  0  0  0
  1  8  1  0  0  0  0
  2  8  1  0  0  0  0
 17 21  1  0  0  0  0
 18 22  1  0  0  0  0
 22 23  1  0  0  0  0
 22 24  1  0  0  0  0
 23 25  2  0  0  0  0
 25 26  1  0  0  0  0
 26 27  2  0  0  0  0
 27 28  1  0  0  0  0
 28 29  2  0  0  0  0
 29 23  1  0  0  0  0
 24 30  2  0  0  0  0
 30 31  1  0  0  0  0
 31 32  2  0  0  0  0
 32 33  1  0  0  0  0
 33 34  2  0  0  0  0
 34 24  1  0  0  0  0
 21 35  1  0  0  0  0
 21 36  1  0  0  0  0
 36 37  2  0  0  0  0
 37 38  1  0  0  0  0
 38 39  2  0  0  0  0
 39 40  1  0  0  0  0
 40 41  2  0  0  0  0
 41 36  1  0  0  0  0
 35 42  2  0  0  0  0
 42 43  1  0  0  0  0
 43 44  2  0  0  0  0
 44 45  1  0  0  0  0
 45 46  2  0  0  0  0
 46 35  1  0  0  0  0
 19 47  1  0  0  0  0
 47 48  2  0  0  0  0
 48 49  1  0  0  0  0
 49 50  2  0  0  0  0
 50 51  1  0  0  0  0
 51 52  2  0  0  0  0
 52 47  1  0  0  0  0
 21  8  1  0  0  0  0
 22  8  1  0  0  0  0
 53 54  1  0  0  0  0
 53 55  1  0  0  0  0
 53 56  1  0  0  0  0
 53 57  1  0  0  0  0
M  END
> <NMREDATA_VERSION>
1.1

> <NMREDATA_LEVEL>
0

> <NMREDATA_SOLVENT>
CD3OD

> <NMREDATA_TEMPERATURE>
298

> <NMREDATA_FORMULA>
C43H44BF4O6P2Rh

> <NMREDATA_SMILES>
F[B](F)(F)F.OC[C@@H]1O[C@H](Oc2ccccc2)[C@@H]2[C@@H]([C@H]1O)OP(c1ccccc1)(c1ccccc1)[Rh]13456(P(O2)(c2ccccc2)c2ccccc2)C2C1C5C6(C4C32)C

> <NMREDATA_ASSIGNMENT>
Rh8, -762.00, 8

> <NMREDATA_1D_103Rh>
-762.00, L=Rh8

$$$$
LaurenceCarlton-2008_00103.mol
  ChemDraw08202410362D

M  V30 COUNTS 53 63 0 0 1
  5.093817 -0.537640  0.000000 B    0  5  0  0  0  0  0
  5.262787  0.406644  0.000000 F    0  0  0  0  0  0  0
  6.286593 -0.140027  0.000000 F    0  0  0  0  0  0  0
  6.048026 -1.939146  0.000000 F    0  0  0  0  0  0  0
  5.272774 -1.442162  0.000000 F    0  0  0  0  0  0  0
 -6.286593 -1.706585  0.000000 C    0  0  0  0  0  0  0
 -5.934150 -0.963825  0.000000 C    0  0  0  0  0  0  0
 -5.866925 -2.403593  0.000000 C    0  0  0  0  0  0  0
 -5.104692 -0.930286  0.000000 C    0  0  0  0  0  0  0
 -5.034444 -2.373916  0.000000 C    0  0  0  0  0  0  0
 -4.684711 -1.631071  0.000000 C    0  0  0  0  0  0  0
 -4.949615 -3.795368  0.000000 C    0  0  0  0  0  0  0
 -4.510778 -4.493942  0.000000 C    0  0  0  0  0  0  0
 -5.767307 -3.862506  0.000000 C    0  0  0  0  0  0  0
 -4.868073 -5.227230  0.000000 C    0  0  0  0  0  0  0
 -6.136055 -4.593359  0.000000 C    0  0  0  0  0  0  0
 -5.689807 -5.283845  0.000000 C    0  0  0  0  0  0  0
 -0.025476 -2.788250  0.000000 Rh   0  3  0  0  0  0  0
 -4.581691 -3.060154  0.000000 P    0  0  0  0  0  0  0
 -2.788945  3.947275  0.000000 C    0  0  0  0  0  0  0
 -2.788945  3.125139  0.000000 C    0  0  0  0  0  0  0
 -3.500935  4.358343  0.000000 C    0  0  0  0  0  0  0
 -3.500935  2.714072  0.000000 C    0  0  0  0  0  0  0
 -4.212925  3.947275  0.000000 C    0  0  0  0  0  0  0
 -4.212925  3.125139  0.000000 C    0  0  0  0  0  0  0
 -2.076954  4.358343  0.000000 C    0  0  0  0  0  0  0
 -1.364963  3.947275  0.000000 C    0  0  0  0  0  0  0
 -2.076954  2.714072  0.000000 C    0  0  0  0  0  0  0
 -1.364963  3.125139  0.000000 C    0  0  0  0  0  0  0
 -2.788945  1.480868  0.000000 C    0  0  0  0  0  0  0
 -2.788945  0.658732  0.000000 C    0  0  0  0  0  0  0
 -3.500935  1.891936  0.000000 C    0  0  0  0  0  0  0
 -3.500935  0.247664  0.000000 C    0  0  0  0  0  0  0
 -4.212925  1.480868  0.000000 C    0  0  0  0  0  0  0
 -4.212925  0.658732  0.000000 C    0  0  0  0  0  0  0
 -2.076954  1.891936  0.000000 C    0  0  0  0  0  0  0
 -1.364963  1.480868  0.000000 C    0  0  0  0  0  0  0
 -2.076954  0.247664  0.000000 C    0  0  0  0  0  0  0
 -1.364963  0.658732  0.000000 C    0  0  0  0  0  0  0
 -0.225779  2.467431  0.000000 P    0  0  0  0  0  0  0
 -0.085974  5.283845  0.000000 C    0  0  0  0  0  0  0
 -0.842924  4.963013  0.000000 C    0  0  0  0  0  0  0
  0.570350  4.788723  0.000000 C    0  0  0  0  0  0  0
 -0.943550  4.147058  0.000000 C    0  0  0  0  0  0  0
  0.469724  3.972770  0.000000 C    0  0  0  0  0  0  0
 -0.287226  3.651937  0.000000 C    0  0  0  0  0  0  0
  1.260648  1.727938  0.000000 C    0  0  0  0  0  0  0
  2.082645  1.712796  0.000000 C    0  0  0  0  0  0  0
  0.862763  2.447379  0.000000 C    0  0  0  0  0  0  0
  2.506756  2.417095  0.000000 C    0  0  0  0  0  0  0
  1.286875  3.151677  0.000000 C    0  0  0  0  0  0  0
  2.108872  3.136535  0.000000 C    0  0  0  0  0  0  0
 -5.402368 -3.109130  0.000000 C    0  0  0  0  0  0  0
  1  2  1  0  0  0  0
  1  3  1  0  0  0  0
  1  4  1  0  0  0  0
  1  5  1  0  0  0  0
  6  7  1  0  0  0  0
  6  8  2  0  0  0  0
  7  9  2  0  0  0  0
  8 10  1  0  0  0  0
  9 11  1  0  0  0  0
 10 11  2  0  0  0  0
 12 13  1  0  0  0  0
 12 14  2  0  0  0  0
 13 15  2  0  0  0  0
 14 16  1  0  0  0  0
 15 17  1  0  0  0  0
 16 17  2  0  0  0  0
 18 19  1  0  0  0  0
 12 19  1  0  0  0  0
 10 19  1  0  0  0  0
 20 22  2  0  0  0  0
 21 23  2  0  0  0  0
 22 24  1  0  0  0  0
 23 25  1  0  0  0  0
 24 25  2  0  0  0  0
 20 26  1  0  0  0  0
 20 21  1  0  0  0  0
 26 27  2  0  0  0  0
 21 28  1  0  0  0  0
 27 29  1  0  0  0  0
 28 29  2  0  0  0  0
 30 32  2  0  0  0  0
 31 33  2  0  0  0  0
 32 34  1  0  0  0  0
 33 35  1  0  0  0  0
 34 35  2  0  0  0  0
 30 36  1  0  0  0  0
 30 31  1  0  0  0  0
 36 37  1  0  0  0  0
 31 38  1  0  0  0  0
 37 39  1  0  0  0  0
 38 39  1  0  0  0  0
 41 42  1  0  0  0  0
 41 43  2  0  0  0  0
 42 44  2  0  0  0  0
 43 45  1  0  0  0  0
 44 46  1  0  0  0  0
 45 46  2  0  0  0  0
 40 46  1  0  0  0  0
 47 48  1  0  0  0  0
 47 49  2  0  0  0  0
 48 50  2  0  0  0  0
 49 51  1  0  0  0  0
 50 52  1  0  0  0  0
 51 52  2  0  0  0  0
 40 49  1  0  0  0  0
 19 53  1  0  0  0  0
 29 40  1  0  0  0  0
 28 36  1  0  0  0  0
 40 18  1  0  0  0  0
 36 18  1  0  0  0  0
 18 37  1  0  0  0  0
 39 18  1  0  0  0  0
 38 18  1  0  0  0  0
M  END
> <NMREDATA_VERSION>
1.1

> <NMREDATA_LEVEL>
0

> <NMREDATA_SOLVENT>
DCCl3

> <NMREDATA_TEMPERATURE>
298

> <NMREDATA_FORMULA>
C45H38BF4P2Rh

> <NMREDATA_SMILES>
CP([Rh]1234C5C1C2C4(c1c5cccc1)c1c(P3(c2ccccc2)c2ccccc2)ccc2c1cccc2)(c1ccccc1)c1ccccc1.F[B](F)(F)F

> <NMREDATA_ASSIGNMENT>
Rh18, -391.00, 18

> <NMREDATA_1D_103Rh>
-391.00, L=Rh18

$$$$
LaurenceCarlton-2008_00104.mol
  ChemDraw09172413122D

 29 36  0  0  1  0  0  0  0  0999 V2000
    0.6543   -1.1834    0.0000 Rh   0  0  0  0  0  0  0  0  0  0  0  0
   -1.9195   -1.8755    0.0000 C    0  0  0  0  0  0  0  0  0  0  0  0
   -2.7071   -1.6299    0.0000 C    0  0  0  0  0  0  0  0  0  0  0  0
   -1.1889   -1.4923    0.0000 C    0  0  0  0  0  0  0  0  0  0  0  0
   -0.9433   -0.7047    0.0000 C    0  0  0  0  0  0  0  0  0  0  0  0
   -3.0903   -0.8993    0.0000 C    0  0  0  0  0  0  0  0  0  0  0  0
   -1.3265    0.0259    0.0000 C    0  0  0  0  0  0  0  0  0  0  0  0
   -2.8447   -0.1117    0.0000 C    0  0  0  0  0  0  0  0  0  0  0  0
   -2.1141    0.2716    0.0000 C    0  0  0  0  0  0  0  0  0  0  0  0
    1.4143    0.1103    0.0000 P    0  0  0  0  0  0  0  0  0  0  0  0
    1.9413    1.3206    0.0000 C    0  0  0  0  0  0  0  0  0  0  0  0
    1.4508    1.9840    0.0000 C    0  0  0  0  0  0  0  0  0  0  0  0
    2.7610    1.4136    0.0000 C    0  0  0  0  0  0  0  0  0  0  0  0
    1.7802    2.7404    0.0000 C    0  0  0  0  0  0  0  0  0  0  0  0
    3.0903    2.1700    0.0000 C    0  0  0  0  0  0  0  0  0  0  0  0
    2.5999    2.8334    0.0000 C    0  0  0  0  0  0  0  0  0  0  0  0
    0.6297    1.1718    0.0000 C    0  0  0  0  0  0  0  0  0  0  0  0
   -0.1901    1.0788    0.0000 C    0  0  0  0  0  0  0  0  0  0  0  0
    0.9590    1.9282    0.0000 C    0  0  0  0  0  0  0  0  0  0  0  0
   -0.6805    1.7422    0.0000 C    0  0  0  0  0  0  0  0  0  0  0  0
    0.4686    2.5916    0.0000 C    0  0  0  0  0  0  0  0  0  0  0  0
   -0.3512    2.4986    0.0000 C    0  0  0  0  0  0  0  0  0  0  0  0
    2.0295   -0.5407    0.0000 C    0  0  0  0  0  0  0  0  0  0  0  0
    2.0832   -1.1835    0.0000 C    0  0  0  0  0  0  0  0  0  0  0  0
    2.7977   -1.5960    0.0000 C    0  0  0  0  0  0  0  0  0  0  0  0
    1.3688   -1.5959    0.0000 C    0  0  0  0  0  0  0  0  0  0  0  0
    2.7976   -2.4209    0.0000 C    0  0  0  0  0  0  0  0  0  0  0  0
    1.3687   -2.4209    0.0000 C    0  0  0  0  0  0  0  0  0  0  0  0
    2.0831   -2.8334    0.0000 C    0  0  0  0  0  0  0  0  0  0  0  0
  2  3  1  0  0
  2  4  1  0  0
  3  6  1  0  0
  4  5  1  0  0
  5  7  1  0  0
  6  8  1  0  0
  7  9  1  0  0
  8  9  1  0  0
 11 12  1  0  0
 11 13  1  0  0
 12 14  1  0  0
 13 15  1  0  0
 14 16  1  0  0
 15 16  1  0  0
 10 11  1  0  0
 17 18  1  0  0
 17 19  1  0  0
 18 20  1  0  0
 19 21  1  0  0
 20 22  1  0  0
 21 22  1  0  0
 10 17  1  0  0
 24 25  1  0  0
 24 26  2  0  0
 25 27  2  0  0
 26 28  1  0  0
 27 29  1  0  0
 28 29  2  0  0
 23 24  1  0  0
  1 26  1  0  0
  5  1  1  0  0
  1  3  1  0  0
  6  1  1  0  0
  7  1  1  0  0
 23 10  1  0  0
 10  1  1  0  0
M  END
> <NMREDATA_VERSION>
1.1

> <NMREDATA_LEVEL>
0

> <NMREDATA_SOLVENT>
THF

> <NMREDATA_TEMPERATURE>
310

> <NMREDATA_FORMULA>
C27H41PRh

> <NMREDATA_SMILES>
C1CCC(CC1)P1(Cc2c([Rh]3451C1C5CCC3C4CC1)cccc2)C1CCCCC1

> <NMREDATA_ASSIGNMENT>
Rh1, 22.00, 1

> <NMREDATA_1D_103Rh>
22.00, L=Rh1

$$$$

  ACD/LABS02122415302D

 50 57  0  0  0  0  0  0  0  0  1 V2000
   14.6339   -9.7536    0.0000 C    0  0  0  0  0  0  0  0  0  0  0  0
   13.7859  -10.7860    0.0000 C    0  0  0  0  0  0  0  0  0  0  0  0
   14.1786   -8.5214    0.0000 C    0  0  0  0  0  0  0  0  0  0  0  0
   12.4813  -10.5667    0.0000 C    0  0  0  0  0  0  0  0  0  0  0  0
   12.8620   -8.2986    0.0000 C    0  0  0  0  0  0  0  0  0  0  0  0
   12.0169   -9.3188    0.0000 C    0  0  0  0  0  0  0  0  0  0  0  0
   16.1716   -8.1596    0.0000 Rh   0  0  0  0  0  0  0  0  0  0  0  0
   18.3313  -11.4394    0.0000 C    0  0  0  0  0  0  0  0  0  0  0  0
   18.7890  -10.1918    0.0000 C    0  0  0  0  0  0  0  0  0  0  0  0
   17.0298  -11.6682    0.0000 C    0  0  0  0  0  0  0  0  0  0  0  0
   17.9329   -9.1700    0.0000 C    0  0  0  0  0  0  0  0  0  0  0  0
   16.1739  -10.6467    0.0000 C    0  0  0  0  0  0  0  0  0  0  0  0
   16.6234   -9.4039    0.0000 C    0  0  0  0  0  0  0  0  0  0  0  0
   18.3904   -7.9230    0.0000 C    0  0  0  0  0  0  0  0  0  0  0  0
   14.8602  -10.8725    0.0000 C    0  0  0  0  0  0  0  0  0  0  0  0
   19.6996   -7.6893    0.0000 P    0  0  0  0  0  0  0  0  0  0  0  0
   14.4026  -12.1201    0.0000 P    0  0  0  0  0  0  0  0  0  0  0  0
   20.5558   -8.7106    0.0000 N    0  0  0  0  0  0  0  0  0  0  0  0
   21.8780   -8.6235    0.0000 C    0  0  0  0  0  0  0  0  0  0  0  0
   20.2283  -10.0061    0.0000 C    0  0  0  0  0  0  0  0  0  0  0  0
   22.3775   -9.8612    0.0000 C    0  0  0  0  0  0  0  0  0  0  0  0
   21.3592  -10.7052    0.0000 C    0  0  0  0  0  0  0  0  0  0  0  0
   20.1620   -6.4499    0.0000 N    0  0  0  0  0  0  0  0  0  0  0  0
   19.4246   -5.3496    0.0000 C    0  0  0  0  0  0  0  0  0  0  0  0
   21.4431   -6.0785    0.0000 C    0  0  0  0  0  0  0  0  0  0  0  0
   20.2439   -4.3029    0.0000 C    0  0  0  0  0  0  0  0  0  0  0  0
   21.4915   -4.7605    0.0000 C    0  0  0  0  0  0  0  0  0  0  0  0
   15.2584  -13.1416    0.0000 N    0  0  0  0  0  0  0  0  0  0  0  0
   16.5885  -13.0499    0.0000 C    0  0  0  0  0  0  0  0  0  0  0  0
   14.9388  -14.4325    0.0000 C    0  0  0  0  0  0  0  0  0  0  0  0
   17.0880  -14.2876    0.0000 C    0  0  0  0  0  0  0  0  0  0  0  0
   16.0619  -15.1361    0.0000 C    0  0  0  0  0  0  0  0  0  0  0  0
   13.0932  -12.3534    0.0000 N    0  0  0  0  0  0  0  0  0  0  0  0
   12.5132  -13.5485    0.0000 C    0  0  0  0  0  0  0  0  0  0  0  0
   12.1396  -11.4294    0.0000 C    0  0  0  0  0  0  0  0  0  0  0  0
   11.1941  -13.3577    0.0000 C    0  0  0  0  0  0  0  0  0  0  0  0
   10.9608  -12.0484    0.0000 C    0  0  0  0  0  0  0  0  0  0  0  0
   15.0191   -7.4934    0.0000 P    0  0  0  0  0  0  0  0  0  0  0  0
   15.8637   -6.4731    0.0000 C    0  0  0  0  0  0  0  0  0  0  0  0
   15.3995   -5.2255    0.0000 C    0  0  0  0  0  0  0  0  0  0  0  0
   17.1726   -6.7008    0.0000 C    0  0  0  0  0  0  0  0  0  0  0  0
   16.2440   -4.2053    0.0000 C    0  0  0  0  0  0  0  0  0  0  0  0
   18.0210   -5.6683    0.0000 C    0  0  0  0  0  0  0  0  0  0  0  0
   17.5566   -4.4203    0.0000 C    0  0  0  0  0  0  0  0  0  0  0  0
   13.9987   -6.6485    0.0000 C    0  0  0  0  0  0  0  0  0  0  0  0
   12.7511   -7.1127    0.0000 C    0  0  0  0  0  0  0  0  0  0  0  0
   14.2136   -5.3365    0.0000 C    0  0  0  0  0  0  0  0  0  0  0  0
   11.7262   -6.2604    0.0000 C    0  0  0  0  0  0  0  0  0  0  0  0
   13.1938   -4.4912    0.0000 C    0  0  0  0  0  0  0  0  0  0  0  0
   11.9458   -4.9556    0.0000 C    0  0  0  0  0  0  0  0  0  0  0  0
  1  2  1  0  0  0  0
  1  3  2  0  0  0  0
  2  4  2  0  0  0  0
  3  5  1  0  0  0  0
  4  6  1  0  0  0  0
  5  6  2  0  0  0  0
  8  9  1  0  0  0  0
  8 10  2  0  0  0  0
  9 11  2  0  0  0  0
 10 12  1  0  0  0  0
 11 13  1  0  0  0  0
 12 13  2  0  0  0  0
  7 13  1  0  0  0  0
 11 14  1  0  0  0  0
 12 15  1  0  0  0  0
 14 16  1  0  0  0  0
 15 17  1  0  0  0  0
 18 19  1  0  0  0  0
 18 20  1  0  0  0  0
 19 21  2  0  0  0  0
 20 22  2  0  0  0  0
 21 22  1  0  0  0  0
 16 18  1  0  0  0  0
 23 24  1  0  0  0  0
 23 25  1  0  0  0  0
 24 26  2  0  0  0  0
 25 27  2  0  0  0  0
 26 27  1  0  0  0  0
 16 23  1  0  0  0  0
 28 29  1  0  0  0  0
 28 30  1  0  0  0  0
 29 31  2  0  0  0  0
 30 32  2  0  0  0  0
 31 32  1  0  0  0  0
 17 28  1  0  0  0  0
 33 34  1  0  0  0  0
 33 35  1  0  0  0  0
 34 36  2  0  0  0  0
 35 37  2  0  0  0  0
 36 37  1  0  0  0  0
 17 33  1  0  0  0  0
  7 38  1  0  0  0  0
 39 40  1  0  0  0  0
 39 41  2  0  0  0  0
 40 42  2  0  0  0  0
 41 43  1  0  0  0  0
 42 44  1  0  0  0  0
 43 44  2  0  0  0  0
 38 39  1  0  0  0  0
 45 46  1  0  0  0  0
 45 47  2  0  0  0  0
 46 48  2  0  0  0  0
 47 49  1  0  0  0  0
 48 50  1  0  0  0  0
 49 50  2  0  0  0  0
 38 45  1  0  0  0  0
  3 38  1  0  0  0  0
M  END
> <NMREDATA_VERSION>
1.1

> <NMREDATA_LEVEL>
0

> <NMREDATA_SOLVENT>
THF

> <NMREDATA_TEMPERATURE>
295

> <NMREDATA_FORMULA>
C42H39N4P3Rh

> <NMREDATA_SMILES>
c1ccc(cc1)P(c1ccccc1)(c1ccccc1)[Rh]c1c(cccc1CP(n1cccc1)n1cccc1)CP(n1cccc1)n1cccc1

> <NMREDATA_ASSIGNMENT>
Rh7, -734.00, 7

> <NMREDATA_1D_103Rh>
-734.00, L=Rh7

$$$$

  ACD/LABS02122415302D

 38 42  0  0  0  0  0  0  0  0  1 V2000
   16.1716   -8.1596    0.0000 Rh   0  0  0  0  0  0  0  0  0  0  0  0
   18.3313  -11.4394    0.0000 C    0  0  0  0  0  0  0  0  0  0  0  0
   18.7890  -10.1918    0.0000 C    0  0  0  0  0  0  0  0  0  0  0  0
   17.0298  -11.6682    0.0000 C    0  0  0  0  0  0  0  0  0  0  0  0
   17.9329   -9.1700    0.0000 C    0  0  0  0  0  0  0  0  0  0  0  0
   16.1739  -10.6467    0.0000 C    0  0  0  0  0  0  0  0  0  0  0  0
   16.6234   -9.4039    0.0000 C    0  0  0  0  0  0  0  0  0  0  0  0
   18.3904   -7.9230    0.0000 C    0  0  0  0  0  0  0  0  0  0  0  0
   14.8602  -10.8725    0.0000 C    0  0  0  0  0  0  0  0  0  0  0  0
   19.6996   -7.6893    0.0000 P    0  0  0  0  0  0  0  0  0  0  0  0
   14.4026  -12.1201    0.0000 P    0  0  0  0  0  0  0  0  0  0  0  0
   20.5558   -8.7106    0.0000 N    0  0  0  0  0  0  0  0  0  0  0  0
   21.8780   -8.6235    0.0000 C    0  0  0  0  0  0  0  0  0  0  0  0
   20.2283  -10.0061    0.0000 C    0  0  0  0  0  0  0  0  0  0  0  0
   22.3775   -9.8612    0.0000 C    0  0  0  0  0  0  0  0  0  0  0  0
   21.3592  -10.7052    0.0000 C    0  0  0  0  0  0  0  0  0  0  0  0
   20.1620   -6.4499    0.0000 N    0  0  0  0  0  0  0  0  0  0  0  0
   19.4246   -5.3496    0.0000 C    0  0  0  0  0  0  0  0  0  0  0  0
   21.4431   -6.0785    0.0000 C    0  0  0  0  0  0  0  0  0  0  0  0
   20.2439   -4.3029    0.0000 C    0  0  0  0  0  0  0  0  0  0  0  0
   21.4915   -4.7605    0.0000 C    0  0  0  0  0  0  0  0  0  0  0  0
   15.2584  -13.1416    0.0000 N    0  0  0  0  0  0  0  0  0  0  0  0
   16.5885  -13.0499    0.0000 C    0  0  0  0  0  0  0  0  0  0  0  0
   14.9388  -14.4325    0.0000 C    0  0  0  0  0  0  0  0  0  0  0  0
   17.0880  -14.2876    0.0000 C    0  0  0  0  0  0  0  0  0  0  0  0
   16.0619  -15.1361    0.0000 C    0  0  0  0  0  0  0  0  0  0  0  0
   13.0932  -12.3534    0.0000 N    0  0  0  0  0  0  0  0  0  0  0  0
   12.5132  -13.5485    0.0000 C    0  0  0  0  0  0  0  0  0  0  0  0
   12.1396  -11.4294    0.0000 C    0  0  0  0  0  0  0  0  0  0  0  0
   11.1941  -13.3577    0.0000 C    0  0  0  0  0  0  0  0  0  0  0  0
   10.9608  -12.0484    0.0000 C    0  0  0  0  0  0  0  0  0  0  0  0
   15.0191   -7.4934    0.0000 P    0  0  0  0  0  0  0  0  0  0  0  0
   15.1588   -6.1372    0.0000 C    0  0  0  0  0  0  0  0  0  0  0  0
   16.3727   -5.5937    0.0000 C    0  0  0  0  0  0  0  0  0  0  0  0
   14.0211   -6.0731    0.0000 C    0  0  0  0  0  0  0  0  0  0  0  0
   14.5811   -4.8668    0.0000 C    0  0  0  0  0  0  0  0  0  0  0  0
   13.3160   -7.2108    0.0000 C    0  0  0  0  0  0  0  0  0  0  0  0
   12.8485   -5.9657    0.0000 C    0  0  0  0  0  0  0  0  0  0  0  0
  2  3  1  0  0  0  0
  2  4  2  0  0  0  0
  3  5  2  0  0  0  0
  4  6  1  0  0  0  0
  5  7  1  0  0  0  0
  6  7  2  0  0  0  0
  1  7  1  0  0  0  0
  5  8  1  0  0  0  0
  6  9  1  0  0  0  0
  8 10  1  0  0  0  0
  9 11  1  0  0  0  0
 12 13  1  0  0  0  0
 12 14  1  0  0  0  0
 13 15  2  0  0  0  0
 14 16  2  0  0  0  0
 15 16  1  0  0  0  0
 10 12  1  0  0  0  0
 17 18  1  0  0  0  0
 17 19  1  0  0  0  0
 18 20  2  0  0  0  0
 19 21  2  0  0  0  0
 20 21  1  0  0  0  0
 10 17  1  0  0  0  0
 22 23  1  0  0  0  0
 22 24  1  0  0  0  0
 23 25  2  0  0  0  0
 24 26  2  0  0  0  0
 25 26  1  0  0  0  0
 11 22  1  0  0  0  0
 27 28  1  0  0  0  0
 27 29  1  0  0  0  0
 28 30  2  0  0  0  0
 29 31  2  0  0  0  0
 30 31  1  0  0  0  0
 11 27  1  0  0  0  0
  1 32  1  0  0  0  0
 32 33  1  0  0  0  0
 33 34  1  0  0  0  0
 32 35  1  0  0  0  0
 35 36  1  0  0  0  0
 32 37  1  0  0  0  0
 37 38  1  0  0  0  0
M  END
> <NMREDATA_VERSION>
1.1

> <NMREDATA_LEVEL>
0

> <NMREDATA_SOLVENT>
C6D6

> <NMREDATA_TEMPERATURE>
295

> <NMREDATA_FORMULA>
C30H39N4P3Rh

> <NMREDATA_SMILES>
CCP([Rh]c1c(cccc1CP(n1cccc1)n1cccc1)CP(n1cccc1)n1cccc1)(CC)CC

> <NMREDATA_ASSIGNMENT>
Rh1, -781.00, 1

> <NMREDATA_1D_103Rh>
-781.00, L=Rh1

$$$$

  ACD/LABS02122415312D

 47 54  0  0  0  0  0  0  0  0  1 V2000
   14.9620   -8.4027    0.0000 Rh   0  0  0  0  0  0  0  0  0  0  0  0
   19.7691  -11.1781    0.0000 C    0  0  0  0  0  0  0  0  0  0  0  0
   19.7651   -9.8551    0.0000 C    0  0  0  0  0  0  0  0  0  0  0  0
   18.6214  -11.8361    0.0000 C    0  0  0  0  0  0  0  0  0  0  0  0
   18.6133   -9.1901    0.0000 C    0  0  0  0  0  0  0  0  0  0  0  0
   17.4696  -11.1711    0.0000 C    0  0  0  0  0  0  0  0  0  0  0  0
   17.4651   -9.8479    0.0000 C    0  0  0  0  0  0  0  0  0  0  0  0
   18.6135   -7.8589    0.0000 C    0  0  0  0  0  0  0  0  0  0  0  0
   16.3168  -11.8369    0.0000 C    0  0  0  0  0  0  0  0  0  0  0  0
   19.7660   -7.1935    0.0000 P    0  0  0  0  0  0  0  0  0  0  0  0
   16.3168  -13.1677    0.0000 P    0  0  0  0  0  0  0  0  0  0  0  0
   20.9178   -7.8585    0.0000 N    0  0  0  0  0  0  0  0  0  0  0  0
   22.1347   -7.3116    0.0000 C    0  0  0  0  0  0  0  0  0  0  0  0
   21.0572   -9.1778    0.0000 C    0  0  0  0  0  0  0  0  0  0  0  0
   23.0244   -8.3064    0.0000 C    0  0  0  0  0  0  0  0  0  0  0  0
   22.3592   -9.4586    0.0000 C    0  0  0  0  0  0  0  0  0  0  0  0
   19.7662   -5.8623    0.0000 N    0  0  0  0  0  0  0  0  0  0  0  0
   18.6929   -5.0789    0.0000 C    0  0  0  0  0  0  0  0  0  0  0  0
   20.8424   -5.0807    0.0000 C    0  0  0  0  0  0  0  0  0  0  0  0
   19.1147   -3.8172    0.0000 C    0  0  0  0  0  0  0  0  0  0  0  0
   20.4379   -3.8128    0.0000 C    0  0  0  0  0  0  0  0  0  0  0  0
   17.4686  -13.8327    0.0000 N    0  0  0  0  0  0  0  0  0  0  0  0
   18.6809  -13.2938    0.0000 C    0  0  0  0  0  0  0  0  0  0  0  0
   17.6111  -15.1644    0.0000 C    0  0  0  0  0  0  0  0  0  0  0  0
   19.5750  -14.2809    0.0000 C    0  0  0  0  0  0  0  0  0  0  0  0
   18.9098  -15.4331    0.0000 C    0  0  0  0  0  0  0  0  0  0  0  0
   15.1641  -13.8335    0.0000 N    0  0  0  0  0  0  0  0  0  0  0  0
   15.0253  -15.1563    0.0000 C    0  0  0  0  0  0  0  0  0  0  0  0
   13.9490  -13.2957    0.0000 C    0  0  0  0  0  0  0  0  0  0  0  0
   13.7250  -15.4400    0.0000 C    0  0  0  0  0  0  0  0  0  0  0  0
   13.0672  -14.2918    0.0000 C    0  0  0  0  0  0  0  0  0  0  0  0
   13.7150   -8.8600    0.0000 P    0  0  0  0  0  0  0  0  0  0  0  0
   14.1727  -10.1072    0.0000 N    0  0  0  0  0  0  0  0  0  0  0  0
   13.4351  -11.2069    0.0000 C    0  0  0  0  0  0  0  0  0  0  0  0
   15.4577  -10.4703    0.0000 C    0  0  0  0  0  0  0  0  0  0  0  0
   14.2542  -12.2535    0.0000 C    0  0  0  0  0  0  0  0  0  0  0  0
   15.4934  -11.7912    0.0000 C    0  0  0  0  0  0  0  0  0  0  0  0
   13.2618   -7.6052    0.0000 N    0  0  0  0  0  0  0  0  0  0  0  0
   13.9948   -6.5135    0.0000 C    0  0  0  0  0  0  0  0  0  0  0  0
   11.9844   -7.2466    0.0000 C    0  0  0  0  0  0  0  0  0  0  0  0
   13.1757   -5.4669    0.0000 C    0  0  0  0  0  0  0  0  0  0  0  0
   11.9284   -5.9246    0.0000 C    0  0  0  0  0  0  0  0  0  0  0  0
   12.4678   -9.3177    0.0000 N    0  0  0  0  0  0  0  0  0  0  0  0
   11.3645   -8.5678    0.0000 C    0  0  0  0  0  0  0  0  0  0  0  0
   12.1014  -10.5910    0.0000 C    0  0  0  0  0  0  0  0  0  0  0  0
   10.3140   -9.3948    0.0000 C    0  0  0  0  0  0  0  0  0  0  0  0
   10.7712  -10.6418    0.0000 C    0  0  0  0  0  0  0  0  0  0  0  0
  2  3  1  0  0  0  0
  2  4  2  0  0  0  0
  3  5  2  0  0  0  0
  4  6  1  0  0  0  0
  5  7  1  0  0  0  0
  6  7  2  0  0  0  0
  1  7  1  0  0  0  0
  5  8  1  0  0  0  0
  6  9  1  0  0  0  0
  8 10  1  0  0  0  0
  9 11  1  0  0  0  0
 12 13  1  0  0  0  0
 12 14  1  0  0  0  0
 13 15  2  0  0  0  0
 14 16  2  0  0  0  0
 15 16  1  0  0  0  0
 10 12  1  0  0  0  0
 17 18  1  0  0  0  0
 17 19  1  0  0  0  0
 18 20  2  0  0  0  0
 19 21  2  0  0  0  0
 20 21  1  0  0  0  0
 10 17  1  0  0  0  0
 22 23  1  0  0  0  0
 22 24  1  0  0  0  0
 23 25  2  0  0  0  0
 24 26  2  0  0  0  0
 25 26  1  0  0  0  0
 11 22  1  0  0  0  0
 27 28  1  0  0  0  0
 27 29  1  0  0  0  0
 28 30  2  0  0  0  0
 29 31  2  0  0  0  0
 30 31  1  0  0  0  0
 11 27  1  0  0  0  0
  1 32  1  0  0  0  0
 33 34  1  0  0  0  0
 33 35  1  0  0  0  0
 34 36  2  0  0  0  0
 35 37  2  0  0  0  0
 36 37  1  0  0  0  0
 32 33  1  0  0  0  0
 38 39  1  0  0  0  0
 38 40  1  0  0  0  0
 39 41  2  0  0  0  0
 40 42  2  0  0  0  0
 41 42  1  0  0  0  0
 32 38  1  0  0  0  0
 43 44  1  0  0  0  0
 43 45  1  0  0  0  0
 44 46  2  0  0  0  0
 45 47  2  0  0  0  0
 46 47  1  0  0  0  0
 32 43  1  0  0  0  0
M  END
> <NMREDATA_VERSION>
1.1

> <NMREDATA_LEVEL>
0

> <NMREDATA_SOLVENT>
toluene-d8

> <NMREDATA_TEMPERATURE>
295

> <NMREDATA_FORMULA>
C36H36N7P3Rh

> <NMREDATA_SMILES>
c1cc(CP(n2cccc2)n2cccc2)c(c(c1)CP(n1cccc1)n1cccc1)[Rh]P(n1cccc1)(n1cccc1)n1cccc1

> <NMREDATA_ASSIGNMENT>
Rh1, -854.00, 1

> <NMREDATA_1D_103Rh>
-854.00, L=Rh1

$$$$

  ACD/LABS02122415392D

 35 37  0  0  0  0  0  0  0  0  2 V2000
   13.0348   -4.6474    0.0000 C    0  0  0  0  0  0  0  0  0  0  0  0
   20.4427  -10.5804    0.0000 C    0  0  0  0  0  0  0  0  0  0  0  0
   17.5744  -10.5804    0.0000 C    0  0  0  0  0  0  0  0  0  0  0  0
   21.8768   -8.0964    0.0000 C    0  0  0  0  0  0  0  0  0  0  0  0
   16.1402   -8.0964    0.0000 C    0  0  0  0  0  0  0  0  0  0  0  0
   20.4427   -5.6123    0.0000 C    0  0  0  0  0  0  0  0  0  0  0  0
   17.5744   -5.6123    0.0000 C    0  0  0  0  0  0  0  0  0  0  0  0
   13.3346   -7.5000    0.0000 N    0  3  0  0  0  0  0  0  0  0  0  0
   11.2030   -9.4193    0.0000 C    0  0  0  0  0  0  0  0  0  0  0  0
   15.6551   -3.4808    0.0000 N    0  0  0  0  0  0  0  0  0  0  0  0
   16.2514   -0.6751    0.0000 C    0  0  0  0  0  0  0  0  0  0  0  0
   30.7189  -21.4815    0.0000 C    0  0  0  0  0  0  0  0  0  0  0  0
   23.3110  -15.5485    0.0000 C    0  0  0  0  0  0  0  0  0  0  0  0
   26.1793  -15.5485    0.0000 C    0  0  0  0  0  0  0  0  0  0  0  0
   21.8768  -18.0325    0.0000 C    0  0  0  0  0  0  0  0  0  0  0  0
   27.6135  -18.0325    0.0000 C    0  0  0  0  0  0  0  0  0  0  0  0
   23.3110  -20.5165    0.0000 C    0  0  0  0  0  0  0  0  0  0  0  0
   26.1793  -20.5165    0.0000 C    0  0  0  0  0  0  0  0  0  0  0  0
   30.4191  -18.6289    0.0000 N    0  3  0  0  0  0  0  0  0  0  0  0
   32.5507  -16.7096    0.0000 C    0  0  0  0  0  0  0  0  0  0  0  0
   28.0986  -22.6481    0.0000 N    0  0  0  0  0  0  0  0  0  0  0  0
   27.5022  -25.4537    0.0000 C    0  0  0  0  0  0  0  0  0  0  0  0
   13.4598  -21.9065    0.0000 C    0  0  0  0  0  0  0  0  0  0  0  0
   21.8768  -13.0644    0.0000 Rh   0  6  0  0  0  0  0  0  0  0  0  0
   24.3609  -11.6303    0.0000 Cl   0  5  0  0  0  0  0  0  0  0  0  0
   19.3928  -14.4986    0.0000 C    0  0  0  0  0  0  0  0  0  0  0  0
   19.3928  -17.3669    0.0000 C    0  0  0  0  0  0  0  0  0  0  0  0
   16.9088  -13.0644    0.0000 C    0  0  0  0  0  0  0  0  0  0  0  0
   16.9088  -18.8011    0.0000 C    0  0  0  0  0  0  0  0  0  0  0  0
   14.4247  -14.4986    0.0000 C    0  0  0  0  0  0  0  0  0  0  0  0
   14.4247  -17.3669    0.0000 C    0  0  0  0  0  0  0  0  0  0  0  0
   16.3124  -21.6067    0.0000 N    0  0  0  0  0  0  0  0  0  0  0  0
   18.2317  -23.7383    0.0000 C    0  0  0  0  0  0  0  0  0  0  0  0
   12.2932  -19.2862    0.0000 N    0  3  0  0  0  0  0  0  0  0  0  0
    9.4875  -18.6898    0.0000 C    0  0  0  0  0  0  0  0  0  0  0  0
  2  3  1  0  0  0  0
  2  4  2  0  0  0  0
  3  5  2  0  0  0  0
  4  6  1  0  0  0  0
  5  7  1  0  0  0  0
  6  7  2  0  0  0  0
  5  8  1  0  0  0  0
  8  9  1  0  0  0  0
 10 11  1  0  0  0  0
  1 10  2  0  0  0  0
  1  8  2  0  0  0  0
 13 14  1  0  0  0  0
 13 15  2  0  0  0  0
 14 16  2  0  0  0  0
 15 17  1  0  0  0  0
 16 18  1  0  0  0  0
 17 18  2  0  0  0  0
 16 19  1  0  0  0  0
 19 20  1  0  0  0  0
 21 22  1  0  0  0  0
 12 21  2  0  0  0  0
 12 19  2  0  0  0  0
 24 25  1  0  0  0  0
 26 27  1  0  0  0  0
 26 28  2  0  0  0  0
 27 29  2  0  0  0  0
 28 30  1  0  0  0  0
 29 31  1  0  0  0  0
 30 31  2  0  0  0  0
 24 26  1  0  0  0  0
 32 33  1  0  0  0  0
 31 34  1  0  0  0  0
 34 35  1  0  0  0  0
 23 34  2  0  0  0  0
 23 32  2  0  0  0  0
 13 24  1  0  0  0  0
  2 24  1  0  0  0  0
M  END
> <NMREDATA_VERSION>
1.1

> <NMREDATA_LEVEL>
0

> <NMREDATA_SOLVENT>
DCCl3

> <NMREDATA_TEMPERATURE>
298

> <NMREDATA_FORMULA>
C27H33ClN6Rh

> <NMREDATA_SMILES>
CN=C=N(c1ccc(cc1)[Rh](c1cccc(c1)N(=C=NC)C)(c1cccc(c1)N(=C=NC)C)Cl)C

> <NMREDATA_ASSIGNMENT>
Rh24, 2874.00, 24

> <NMREDATA_1D_103Rh>
2874.00, L=Rh24

$$$$

  ACD/LABS02122415412D

 32 34  0  0  0  0  0  0  0  0  2 V2000
   13.0348   -4.6474    0.0000 C    0  0  0  0  0  0  0  0  0  0  0  0
   20.4427  -10.5804    0.0000 C    0  0  0  0  0  0  0  0  0  0  0  0
   17.5744  -10.5804    0.0000 C    0  0  0  0  0  0  0  0  0  0  0  0
   21.8768   -8.0964    0.0000 C    0  0  0  0  0  0  0  0  0  0  0  0
   16.1402   -8.0964    0.0000 C    0  0  0  0  0  0  0  0  0  0  0  0
   20.4427   -5.6123    0.0000 C    0  0  0  0  0  0  0  0  0  0  0  0
   17.5744   -5.6123    0.0000 C    0  0  0  0  0  0  0  0  0  0  0  0
   13.3346   -7.5000    0.0000 N    0  3  0  0  0  0  0  0  0  0  0  0
   11.2030   -9.4193    0.0000 C    0  0  0  0  0  0  0  0  0  0  0  0
   15.6551   -3.4808    0.0000 N    0  0  0  0  0  0  0  0  0  0  0  0
   16.2514   -0.6751    0.0000 C    0  0  0  0  0  0  0  0  0  0  0  0
   13.4598  -21.9065    0.0000 C    0  0  0  0  0  0  0  0  0  0  0  0
   21.8768  -13.0644    0.0000 Rh   0  6  0  0  0  0  0  0  0  0  0  0
   24.3609  -11.6303    0.0000 Cl   0  0  0  0  0  0  0  0  0  0  0  0
   19.3928  -14.4986    0.0000 C    0  0  0  0  0  0  0  0  0  0  0  0
   19.3928  -17.3669    0.0000 C    0  0  0  0  0  0  0  0  0  0  0  0
   16.9088  -13.0644    0.0000 C    0  0  0  0  0  0  0  0  0  0  0  0
   16.9088  -18.8011    0.0000 C    0  0  0  0  0  0  0  0  0  0  0  0
   14.4247  -14.4986    0.0000 C    0  0  0  0  0  0  0  0  0  0  0  0
   14.4247  -17.3669    0.0000 C    0  0  0  0  0  0  0  0  0  0  0  0
   16.3124  -21.6067    0.0000 N    0  0  0  0  0  0  0  0  0  0  0  0
   18.2317  -23.7383    0.0000 C    0  0  0  0  0  0  0  0  0  0  0  0
   12.2932  -19.2862    0.0000 N    0  3  0  0  0  0  0  0  0  0  0  0
    9.4875  -18.6898    0.0000 C    0  0  0  0  0  0  0  0  0  0  0  0
   23.3104  -15.5488    0.0000 C    0  0  0  0  0  0  0  0  0  0  0  0
   26.1544  -15.1751    0.0000 C    0  0  0  0  0  0  0  0  0  0  0  0
   21.5637  -17.8240    0.0000 C    0  0  0  0  0  0  0  0  0  0  0  0
   21.9376  -20.6678    0.0000 C    0  0  0  0  0  0  0  0  0  0  0  0
   28.4293  -16.9216    0.0000 C    0  0  0  0  0  0  0  0  0  0  0  0
   24.2126  -22.4143    0.0000 C    0  0  0  0  0  0  0  0  0  0  0  0
   28.8031  -19.7656    0.0000 C    0  0  0  0  0  0  0  0  0  0  0  0
   27.0564  -22.0408    0.0000 C    0  0  0  0  0  0  0  0  0  0  0  0
  2  3  1  0  0  0  0
  2  4  2  0  0  0  0
  3  5  2  0  0  0  0
  4  6  1  0  0  0  0
  5  7  1  0  0  0  0
  6  7  2  0  0  0  0
  5  8  1  0  0  0  0
  8  9  1  0  0  0  0
 10 11  1  0  0  0  0
  1 10  2  0  0  0  0
  1  8  2  0  0  0  0
 13 14  1  0  0  0  0
 15 16  1  0  0  0  0
 15 17  2  0  0  0  0
 16 18  2  0  0  0  0
 17 19  1  0  0  0  0
 18 20  1  0  0  0  0
 19 20  2  0  0  0  0
 13 15  1  0  0  0  0
 21 22  1  0  0  0  0
 20 23  1  0  0  0  0
 23 24  1  0  0  0  0
 12 23  2  0  0  0  0
 12 21  2  0  0  0  0
  2 13  1  0  0  0  0
 25 26  1  0  0  0  0
 25 27  1  0  0  0  0
 26 29  1  0  0  0  0
 27 28  2  0  0  0  0
 28 30  1  0  0  0  0
 29 31  2  0  0  0  0
 30 32  1  0  0  0  0
 31 32  1  0  0  0  0
 13 25  1  0  0  0  0
M  END
> <NMREDATA_VERSION>
1.1

> <NMREDATA_LEVEL>
0

> <NMREDATA_SOLVENT>
DCCl3

> <NMREDATA_TEMPERATURE>
298

> <NMREDATA_FORMULA>
C26H33ClN4Rh

> <NMREDATA_SMILES>
CN=C=N(c1ccc(cc1)[Rh](c1cccc(c1)N(=C=NC)C)(C1C=CCCC=CC1)Cl)C

> <NMREDATA_ASSIGNMENT>
Rh13, 642.00, 13

> <NMREDATA_1D_103Rh>
642.00, L=Rh13

$$$$
LaurenceCarlton-2008_00110.mol
  ChemDraw08142417202D

 13 24  0  0  0  0  0  0  0  0999 V2000
   -0.2233   -1.1141    0.0000 Rh   0  0  0  0  0  0  0  0  0  0  0  0
    1.4650    0.8356    0.0000 C    0  0  0  0  0  0  0  0  0  0  0  0
    2.1328    1.3199    0.0000 C    0  0  0  0  0  0  0  0  0  0  0  0
    1.7192    0.0508    0.0000 C    0  0  0  0  0  0  0  0  0  0  0  0
    2.7998    0.8344    0.0000 C    0  0  0  0  0  0  0  0  0  0  0  0
    2.5443    0.0501    0.0000 C    0  0  0  0  0  0  0  0  0  0  0  0
   -0.9789   -0.7829    0.0000 C    0  0  0  0  0  0  0  0  0  0  0  0
   -1.6052   -1.3199    0.0000 C    0  0  0  0  0  0  0  0  0  0  0  0
   -1.0083    0.0416    0.0000 C    0  0  0  0  0  0  0  0  0  0  0  0
   -2.4155   -1.1652    0.0000 C    0  0  0  0  0  0  0  0  0  0  0  0
   -1.6713    0.5326    0.0000 C    0  0  0  0  0  0  0  0  0  0  0  0
   -2.4686    0.3204    0.0000 C    0  0  0  0  0  0  0  0  0  0  0  0
   -2.7998   -0.4352    0.0000 C    0  0  0  0  0  0  0  0  0  0  0  0
  2  3  1  0  0
  2  4  1  0  0
  3  5  1  0  0
  4  6  1  0  0
  5  6  1  0  0
  7  8  1  0  0
  7  9  1  0  0
  8 10  1  0  0
  9 11  1  0  0
 10 13  1  0  0
 11 12  1  0  0
 12 13  1  0  0
  1  7  1  0  0
  4  1  1  0  0
  6  1  1  0  0
  5  1  1  0  0
  3  1  1  0  0
  2  1  1  0  0
  9  1  1  0  0
  8  1  1  0  0
 10  1  1  0  0
 11  1  1  0  0
 12  1  1  0  0
 13  1  1  0  0
M  END
> <NMREDATA_VERSION>
1.1

> <NMREDATA_LEVEL>
0

> <NMREDATA_SOLVENT>
pentane-d12

> <NMREDATA_TEMPERATURE>
300

> <NMREDATA_FORMULA>
C12H12Rh

> <NMREDATA_SMILES>
C12C3C4C5C6C7C1[Rh]189%10234567C2C1C9C%10C82

> <NMREDATA_ASSIGNMENT>
Rh1, -993.00, 1

> <NMREDATA_1D_103Rh>
-993.00, L=Rh1

$$$$
LaurenceCarlton-2008_00112.mol
  ChemDraw08202410362D

M  V30 COUNTS 51 57 0 0 0
 -1.292148  1.247394  0.000000 C    0  0  0  0  0  0  0
 -1.323163 -2.614164  0.000000 C    0  0  0  0  0  0  0
 -1.323163 -3.439163  0.000000 C    0  0  0  0  0  0  0
 -2.037687 -2.201664  0.000000 C    0  0  0  0  0  0  0
 -2.037687 -3.851663  0.000000 C    0  0  0  0  0  0  0
 -2.752150 -2.614164  0.000000 C    0  0  0  0  0  0  0
 -2.752150 -3.439163  0.000000 C    0  0  0  0  0  0  0
 -3.758400 -2.564478  0.000000 C    0  0  0  0  0  0  0
 -3.758400 -3.389477  0.000000 C    0  0  0  0  0  0  0
 -4.472925 -2.151978  0.000000 C    0  0  0  0  0  0  0
 -4.472925 -3.801977  0.000000 C    0  0  0  0  0  0  0
 -5.187387 -2.564478  0.000000 C    0  0  0  0  0  0  0
 -5.187387 -3.389477  0.000000 C    0  0  0  0  0  0  0
  5.883178  0.159014  0.000000 C    0  0  0  0  0  0  0
  5.883178 -0.665986  0.000000 C    0  0  0  0  0  0  0
  5.168653  0.571514  0.000000 C    0  0  0  0  0  0  0
  5.168653 -1.078486  0.000000 C    0  0  0  0  0  0  0
  4.454192  0.159014  0.000000 C    0  0  0  0  0  0  0
  4.454192 -0.665986  0.000000 C    0  0  0  0  0  0  0
  5.177463  2.544566  0.000000 C    0  0  0  0  0  0  0
  5.177463  1.719566  0.000000 C    0  0  0  0  0  0  0
  4.462938  2.957066  0.000000 C    0  0  0  0  0  0  0
  4.462938  1.307067  0.000000 C    0  0  0  0  0  0  0
  3.748476  2.544566  0.000000 C    0  0  0  0  0  0  0
  3.748476  1.719566  0.000000 C    0  0  0  0  0  0  0
  0.009924  0.064604  0.000000 Rh   0  0  0  0  0  0  0
  1.580464  1.048649  0.000000 P    0  0  0  0  0  0  0
 -1.938254 -1.078486  0.000000 P    0  0  0  0  0  0  0
  3.090089  3.439164  0.000000 C    0  0  0  0  0  0  0
  3.090089  2.614164  0.000000 C    0  0  0  0  0  0  0
  2.375565  3.851663  0.000000 C    0  0  0  0  0  0  0
  2.375565  2.201664  0.000000 C    0  0  0  0  0  0  0
  1.661103  3.439164  0.000000 C    0  0  0  0  0  0  0
  1.661103  2.614164  0.000000 C    0  0  0  0  0  0  0
 -4.454192 -0.526852  0.000000 C    0  0  0  0  0  0  0
 -4.454192 -1.351852  0.000000 C    0  0  0  0  0  0  0
 -5.168716 -0.114352  0.000000 C    0  0  0  0  0  0  0
 -5.168716 -1.764351  0.000000 C    0  0  0  0  0  0  0
 -5.883178 -0.526852  0.000000 C    0  0  0  0  0  0  0
 -5.883178 -1.351852  0.000000 C    0  0  0  0  0  0  0
 -1.878581  2.460081  0.000000 N    0  0  0  0  0  0  0
  1.152188 -2.980595  0.000000 C    0  0  0  0  0  0  0
  1.563245 -2.268598  0.000000 C    0  0  0  0  0  0  0
  1.563314 -3.692606  0.000000 C    0  0  0  0  0  0  0
  2.385427 -2.268612  0.000000 C    0  0  0  0  0  0  0
  2.385443 -3.692589  0.000000 C    0  0  0  0  0  0  0
  2.796499 -2.980592  0.000000 C    0  0  0  0  0  0  0
  0.330053 -2.980595  0.000000 C    0  0  0  0  0  0  0
  1.152177 -1.556608  0.000000 N    0  0  0  0  0  0  0
  0.741109 -0.844618  0.000000 C    0  0  0  0  0  0  0
  2.796495 -1.556621  0.000000 C    0  0  0  0  0  0  0
  2  3  1  0  0  0  0
  2  4  2  0  0  0  0
  3  5  2  0  0  0  0
  4  6  1  0  0  0  0
  5  7  1  0  0  0  0
  6  7  2  0  0  0  0
  8  9  1  0  0  0  0
  8 10  2  0  0  0  0
  9 11  2  0  0  0  0
 10 12  1  0  0  0  0
 11 13  1  0  0  0  0
 12 13  2  0  0  0  0
 14 15  1  0  0  0  0
 14 16  2  0  0  0  0
 15 17  2  0  0  0  0
 16 18  1  0  0  0  0
 17 19  1  0  0  0  0
 18 19  2  0  0  0  0
 20 21  1  0  0  0  0
 20 22  2  0  0  0  0
 21 23  2  0  0  0  0
 22 24  1  0  0  0  0
 23 25  1  0  0  0  0
 24 25  2  0  0  0  0
 26 27  1  0  0  0  0
 26 28  1  0  0  0  0
 29 30  1  0  0  0  0
 29 31  2  0  0  0  0
 30 32  2  0  0  0  0
 31 33  1  0  0  0  0
 32 34  1  0  0  0  0
 33 34  2  0  0  0  0
 27 32  1  0  0  0  0
 25 27  1  0  0  0  0
 18 27  1  0  0  0  0
 35 36  1  0  0  0  0
 35 37  2  0  0  0  0
 36 38  2  0  0  0  0
 37 39  1  0  0  0  0
 38 40  1  0  0  0  0
 39 40  2  0  0  0  0
 28 35  1  0  0  0  0
  8 28  1  0  0  0  0
  4 28  1  0  0  0  0
  1 26  1  0  0  0  0
  1 41  3  0  0  0  0
 42 43  1  0  0  0  0
 42 44  2  0  0  0  0
 43 45  2  0  0  0  0
 44 46  1  0  0  0  0
 45 47  1  0  0  0  0
 46 47  2  0  0  0  0
 42 48  1  0  0  0  0
 43 49  1  0  0  0  0
 49 50  3  0  0  0  0
 45 51  1  0  0  0  0
 26 50  1  0  0  0  0
M  END
> <NMREDATA_VERSION>
1.1

> <NMREDATA_LEVEL>
0

> <NMREDATA_SOLVENT>
DCCl3

> <NMREDATA_TEMPERATURE>
247

> <NMREDATA_FORMULA>
C46H42N2P2Rh

> <NMREDATA_SMILES>
N#C[Rh](P(c1ccccc1)(c1ccccc1)c1ccccc1)(P(c1ccccc1)(c1ccccc1)c1ccccc1)C#Nc1c(C)cccc1C

> <NMREDATA_ASSIGNMENT>
Rh26, -775.00, 26

> <NMREDATA_1D_103Rh>
-775.00, L=Rh26

$$$$
LaurenceCarlton-2008_00113.mol
  ChemDraw08202410322D

M  V30 COUNTS 70 79 0 0 0
 -0.562799 -2.461480  0.000000 C    0  0  0  0  0  0  0
 -0.562799 -3.286480  0.000000 C    0  0  0  0  0  0  0
 -1.277323 -2.048980  0.000000 C    0  0  0  0  0  0  0
 -1.277323 -3.698980  0.000000 C    0  0  0  0  0  0  0
 -1.991785 -2.461480  0.000000 C    0  0  0  0  0  0  0
 -1.991785 -3.286480  0.000000 C    0  0  0  0  0  0  0
 -2.998037 -2.411794  0.000000 C    0  0  0  0  0  0  0
 -2.998037 -3.236794  0.000000 C    0  0  0  0  0  0  0
 -3.712561 -1.999294  0.000000 C    0  0  0  0  0  0  0
 -3.712561 -3.649294  0.000000 C    0  0  0  0  0  0  0
 -4.427023 -2.411794  0.000000 C    0  0  0  0  0  0  0
 -4.427023 -3.236794  0.000000 C    0  0  0  0  0  0  0
  6.643543  0.311697  0.000000 C    0  0  0  0  0  0  0
  6.643543 -0.513302  0.000000 C    0  0  0  0  0  0  0
  5.929018  0.724197  0.000000 C    0  0  0  0  0  0  0
  5.929018 -0.925802  0.000000 C    0  0  0  0  0  0  0
  5.214556  0.311697  0.000000 C    0  0  0  0  0  0  0
  5.214556 -0.513302  0.000000 C    0  0  0  0  0  0  0
  5.937827  2.697249  0.000000 C    0  0  0  0  0  0  0
  5.937827  1.872249  0.000000 C    0  0  0  0  0  0  0
  5.223302  3.109748  0.000000 C    0  0  0  0  0  0  0
  5.223302  1.459749  0.000000 C    0  0  0  0  0  0  0
  4.508841  2.697249  0.000000 C    0  0  0  0  0  0  0
  4.508841  1.872249  0.000000 C    0  0  0  0  0  0  0
  0.770289  0.217287  0.000000 Rh   0  0  0  0  0  0  0
  2.340828  1.201333  0.000000 P    0  0  0  0  0  0  0
 -1.177889 -0.925802  0.000000 P    0  0  0  0  0  0  0
  3.850453  3.591846  0.000000 C    0  0  0  0  0  0  0
  3.850453  2.766846  0.000000 C    0  0  0  0  0  0  0
  3.135928  4.004346  0.000000 C    0  0  0  0  0  0  0
  3.135928  2.354347  0.000000 C    0  0  0  0  0  0  0
  2.421467  3.591846  0.000000 C    0  0  0  0  0  0  0
  2.421467  2.766846  0.000000 C    0  0  0  0  0  0  0
 -3.693827 -0.374170  0.000000 C    0  0  0  0  0  0  0
 -3.693827 -1.199169  0.000000 C    0  0  0  0  0  0  0
 -4.408352  0.038330  0.000000 C    0  0  0  0  0  0  0
 -4.408352 -1.611668  0.000000 C    0  0  0  0  0  0  0
 -5.122814 -0.374170  0.000000 C    0  0  0  0  0  0  0
 -5.122814 -1.199169  0.000000 C    0  0  0  0  0  0  0
 -1.192590  0.906193  0.000000 C    0  0  0  0  0  0  0
 -1.804688  1.590835  0.000000 N    0  0  0  0  0  0  0
 -5.214619  3.025264  0.000000 C    0  0  0  0  0  0  0
 -5.214619  2.200264  0.000000 C    0  0  0  0  0  0  0
 -5.929142  3.437764  0.000000 C    0  0  0  0  0  0  0
 -5.929142  1.787764  0.000000 C    0  0  0  0  0  0  0
 -6.643543  3.025264  0.000000 C    0  0  0  0  0  0  0
 -6.643543  2.200264  0.000000 C    0  0  0  0  0  0  0
 -2.878753  1.564083  0.000000 C    0  0  0  0  0  0  0
 -2.878753  0.739084  0.000000 C    0  0  0  0  0  0  0
 -3.593277  1.976583  0.000000 C    0  0  0  0  0  0  0
 -3.593277  0.326584  0.000000 C    0  0  0  0  0  0  0
 -4.307739  1.564083  0.000000 C    0  0  0  0  0  0  0
 -4.307739  0.739084  0.000000 C    0  0  0  0  0  0  0
 -3.027873  3.890025  0.000000 C    0  0  0  0  0  0  0
 -3.027873  3.065025  0.000000 C    0  0  0  0  0  0  0
 -3.742397  4.302524  0.000000 C    0  0  0  0  0  0  0
 -3.742397  2.652525  0.000000 C    0  0  0  0  0  0  0
 -4.456798  3.890025  0.000000 C    0  0  0  0  0  0  0
 -4.456798  3.065025  0.000000 C    0  0  0  0  0  0  0
 -2.460112  2.314585  0.000000 B    0  0  0  0  0  0  0
  2.839011 -3.256746  0.000000 C    0  0  0  0  0  0  0
  3.442772 -2.694522  0.000000 C    0  0  0  0  0  0  0
  3.024068 -4.060771  0.000000 C    0  0  0  0  0  0  0
  4.231590 -2.936321  0.000000 C    0  0  0  0  0  0  0
  3.812844 -4.302524  0.000000 C    0  0  0  0  0  0  0
  4.416605 -3.740300  0.000000 C    0  0  0  0  0  0  0
  2.050235 -3.014994  0.000000 C    0  0  0  0  0  0  0
  2.951882 -1.941267  0.000000 N    0  0  0  0  0  0  0
  1.951606 -0.998348  0.000000 C    0  0  0  0  0  0  0
  4.835362 -2.374107  0.000000 C    0  0  0  0  0  0  0
  1  2  1  0  0  0  0
  1  3  2  0  0  0  0
  2  4  2  0  0  0  0
  3  5  1  0  0  0  0
  4  6  1  0  0  0  0
  5  6  2  0  0  0  0
  7  8  1  0  0  0  0
  7  9  2  0  0  0  0
  8 10  2  0  0  0  0
  9 11  1  0  0  0  0
 10 12  1  0  0  0  0
 11 12  2  0  0  0  0
 13 14  1  0  0  0  0
 13 15  2  0  0  0  0
 14 16  2  0  0  0  0
 15 17  1  0  0  0  0
 16 18  1  0  0  0  0
 17 18  2  0  0  0  0
 19 20  1  0  0  0  0
 19 21  2  0  0  0  0
 20 22  2  0  0  0  0
 21 23  1  0  0  0  0
 22 24  1  0  0  0  0
 23 24  2  0  0  0  0
 25 26  1  0  0  0  0
 25 27  1  0  0  0  0
 28 29  1  0  0  0  0
 28 30  2  0  0  0  0
 29 31  2  0  0  0  0
 30 32  1  0  0  0  0
 31 33  1  0  0  0  0
 32 33  2  0  0  0  0
 26 31  1  0  0  0  0
 24 26  1  0  0  0  0
 17 26  1  0  0  0  0
 34 35  1  0  0  0  0
 34 36  2  0  0  0  0
 35 37  2  0  0  0  0
 36 38  1  0  0  0  0
 37 39  1  0  0  0  0
 38 39  2  0  0  0  0
 27 34  1  0  0  0  0
  7 27  1  0  0  0  0
  3 27  1  0  0  0  0
 40 41  3  0  0  0  0
 42 43  1  0  0  0  0
 42 44  2  0  0  0  0
 43 45  2  0  0  0  0
 44 46  1  0  0  0  0
 45 47  1  0  0  0  0
 46 47  2  0  0  0  0
 48 49  1  0  0  0  0
 48 50  2  0  0  0  0
 49 51  2  0  0  0  0
 50 52  1  0  0  0  0
 51 53  1  0  0  0  0
 52 53  2  0  0  0  0
 54 55  1  0  0  0  0
 54 56  2  0  0  0  0
 55 57  2  0  0  0  0
 56 58  1  0  0  0  0
 57 59  1  0  0  0  0
 58 59  2  0  0  0  0
 55 60  1  0  0  0  0
 48 60  1  0  0  0  0
 43 60  1  0  0  0  0
 41 60  1  0  0  0  0
 61 62  1  0  0  0  0
 61 63  2  0  0  0  0
 62 64  2  0  0  0  0
 63 65  1  0  0  0  0
 64 66  1  0  0  0  0
 65 66  2  0  0  0  0
 61 67  1  0  0  0  0
 62 68  1  0  0  0  0
 68 69  3  0  0  0  0
 64 70  1  0  0  0  0
 25 69  1  0  0  0  0
 40 25  1  0  0  0  0
M  END
> <NMREDATA_VERSION>
1.1

> <NMREDATA_LEVEL>
0

> <NMREDATA_SOLVENT>
DCCl3

> <NMREDATA_TEMPERATURE>
247

> <NMREDATA_FORMULA>
C64H58BN2P2Rh

> <NMREDATA_SMILES>
Cc1cccc(c1N#C[Rh](P(c1ccccc1)(c1ccccc1)c1ccccc1)(P(c1ccccc1)(c1ccccc1)c1ccccc1)C#N[B](c1ccccc1)(c1ccccc1)c1ccccc1)C

> <NMREDATA_ASSIGNMENT>
Rh25, -817.00, 25

> <NMREDATA_1D_103Rh>
-817.00, L=Rh25

$$$$
LaurenceCarlton-2008_00116.mol
  ChemDraw08202410262D

M  V30 COUNTS 52 58 0 0 0
  5.415902  0.243529  0.000000 C    0  0  0  0  0  0  0
  5.415902 -0.581457  0.000000 C    0  0  0  0  0  0  0
  4.701391  0.656021  0.000000 C    0  0  0  0  0  0  0
  4.701391 -0.993949  0.000000 C    0  0  0  0  0  0  0
  3.986941  0.243529  0.000000 C    0  0  0  0  0  0  0
  3.986941 -0.581457  0.000000 C    0  0  0  0  0  0  0
  4.938775  2.678723  0.000000 C    0  0  0  0  0  0  0
  4.938775  1.853738  0.000000 C    0  0  0  0  0  0  0
  4.224264  3.091215  0.000000 C    0  0  0  0  0  0  0
  4.224264  1.441245  0.000000 C    0  0  0  0  0  0  0
  3.509877  2.678723  0.000000 C    0  0  0  0  0  0  0
  3.509877  1.853738  0.000000 C    0  0  0  0  0  0  0
  3.229196  3.603078  0.000000 C    0  0  0  0  0  0  0
  3.229196  2.778093  0.000000 C    0  0  0  0  0  0  0
  2.514684  4.015570  0.000000 C    0  0  0  0  0  0  0
  2.514684  2.365600  0.000000 C    0  0  0  0  0  0  0
  1.800235  3.603078  0.000000 C    0  0  0  0  0  0  0
  1.800235  2.778093  0.000000 C    0  0  0  0  0  0  0
 -0.150265 -2.469990  0.000000 C    0  0  0  0  0  0  0
 -0.150265 -3.294975  0.000000 C    0  0  0  0  0  0  0
 -0.864777 -2.057497  0.000000 C    0  0  0  0  0  0  0
 -0.864777 -3.707467  0.000000 C    0  0  0  0  0  0  0
 -1.579226 -2.469990  0.000000 C    0  0  0  0  0  0  0
 -1.579226 -3.294975  0.000000 C    0  0  0  0  0  0  0
 -2.595384 -2.718478  0.000000 C    0  0  0  0  0  0  0
 -2.595384 -3.543463  0.000000 C    0  0  0  0  0  0  0
 -3.309896 -2.305985  0.000000 C    0  0  0  0  0  0  0
 -3.309896 -3.955955  0.000000 C    0  0  0  0  0  0  0
 -4.024345 -2.718478  0.000000 C    0  0  0  0  0  0  0
 -4.024345 -3.543463  0.000000 C    0  0  0  0  0  0  0
 -3.986941 -1.237475  0.000000 C    0  0  0  0  0  0  0
 -3.986941 -2.062459  0.000000 C    0  0  0  0  0  0  0
 -4.701453 -0.824982  0.000000 C    0  0  0  0  0  0  0
 -4.701453 -2.474952  0.000000 C    0  0  0  0  0  0  0
 -5.415902 -1.237475  0.000000 C    0  0  0  0  0  0  0
 -5.415902 -2.062459  0.000000 C    0  0  0  0  0  0  0
 -0.258443 -0.188875  0.000000 Rh   0  0  0  0  0  0  0
  1.650001  1.013804  0.000000 P    0  0  0  0  0  0  0
 -2.037620 -1.371705  0.000000 P    0  0  0  0  0  0  0
 -1.689700  0.993955  0.000000 N    0  0  0  0  0  0  0
 -2.288086  1.920433  0.000000 N    0  3  0  0  0  0  0
 -2.945435  2.859482  0.000000 N    0  5  0  0  0  0  0
  2.722910 -3.934625  0.000000 C    0  0  0  0  0  0  0
  1.901890 -4.015570  0.000000 C    0  0  0  0  0  0  0
  3.063305 -3.183123  0.000000 C    0  0  0  0  0  0  0
  1.421326 -3.344950  0.000000 C    0  0  0  0  0  0  0
  2.582744 -2.512566  0.000000 C    0  0  0  0  0  0  0
  1.761724 -2.593511  0.000000 C    0  0  0  0  0  0  0
  1.281162 -1.922953  0.000000 N    0  0  0  0  0  0  0
  0.835307 -1.228808  0.000000 C    0  0  0  0  0  0  0
  2.484220 -1.395300  0.000000 C    0  0  0  0  0  0  0
  0.597251 -3.384000  0.000000 C    0  0  0  0  0  0  0
  1  2  1  0  0  0  0
  1  3  2  0  0  0  0
  2  4  2  0  0  0  0
  3  5  1  0  0  0  0
  4  6  1  0  0  0  0
  5  6  2  0  0  0  0
  7  8  1  0  0  0  0
  7  9  2  0  0  0  0
  8 10  2  0  0  0  0
  9 11  1  0  0  0  0
 10 12  1  0  0  0  0
 11 12  2  0  0  0  0
 13 14  1  0  0  0  0
 13 15  2  0  0  0  0
 14 16  2  0  0  0  0
 15 17  1  0  0  0  0
 16 18  1  0  0  0  0
 17 18  2  0  0  0  0
 19 20  1  0  0  0  0
 19 21  2  0  0  0  0
 20 22  2  0  0  0  0
 21 23  1  0  0  0  0
 22 24  1  0  0  0  0
 23 24  2  0  0  0  0
 25 26  1  0  0  0  0
 25 27  2  0  0  0  0
 26 28  2  0  0  0  0
 27 29  1  0  0  0  0
 28 30  1  0  0  0  0
 29 30  2  0  0  0  0
 31 32  1  0  0  0  0
 31 33  2  0  0  0  0
 32 34  2  0  0  0  0
 33 35  1  0  0  0  0
 34 36  1  0  0  0  0
 35 36  2  0  0  0  0
 37 38  1  0  0  0  0
 37 39  1  0  0  0  0
 31 39  1  0  0  0  0
 27 39  1  0  0  0  0
 23 39  1  0  0  0  0
 16 38  1  0  0  0  0
 12 38  1  0  0  0  0
  5 38  1  0  0  0  0
 37 40  1  0  0  0  0
 40 41  2  0  0  0  0
 41 42  2  0  0  0  0
 43 44  1  0  0  0  0
 43 45  2  0  0  0  0
 44 46  2  0  0  0  0
 45 47  1  0  0  0  0
 46 48  1  0  0  0  0
 47 48  2  0  0  0  0
 48 49  1  0  0  0  0
 49 50  3  0  0  0  0
 47 51  1  0  0  0  0
 46 52  1  0  0  0  0
 50 37  1  0  0  0  0
M  END
> <NMREDATA_VERSION>
1.1

> <NMREDATA_LEVEL>
0

> <NMREDATA_SOLVENT>
DCCl3

> <NMREDATA_TEMPERATURE>
300

> <NMREDATA_FORMULA>
C45H44N4P2Rh

> <NMREDATA_SMILES>
N=N=N[Rh](P(c1ccccc1)(c1ccccc1)c1ccccc1)(P(c1ccccc1)(c1ccccc1)c1ccccc1)C#Nc1c(C)cccc1C

> <NMREDATA_ASSIGNMENT>
Rh37, -251.00, 37

> <NMREDATA_1D_103Rh>
-251.00, L=Rh37

$$$$
LaurenceCarlton-2008_00117.mol
  ChemDraw08202410272D

M  V30 COUNTS 52 58 0 0 0
  5.415902  0.243529  0.000000 C    0  0  0  0  0  0  0
  5.415902 -0.581457  0.000000 C    0  0  0  0  0  0  0
  4.701391  0.656021  0.000000 C    0  0  0  0  0  0  0
  4.701391 -0.993949  0.000000 C    0  0  0  0  0  0  0
  3.986941  0.243529  0.000000 C    0  0  0  0  0  0  0
  3.986941 -0.581457  0.000000 C    0  0  0  0  0  0  0
  4.938775  2.678723  0.000000 C    0  0  0  0  0  0  0
  4.938775  1.853738  0.000000 C    0  0  0  0  0  0  0
  4.224264  3.091215  0.000000 C    0  0  0  0  0  0  0
  4.224264  1.441245  0.000000 C    0  0  0  0  0  0  0
  3.509877  2.678723  0.000000 C    0  0  0  0  0  0  0
  3.509877  1.853738  0.000000 C    0  0  0  0  0  0  0
  3.229196  3.603078  0.000000 C    0  0  0  0  0  0  0
  3.229196  2.778093  0.000000 C    0  0  0  0  0  0  0
  2.514684  4.015570  0.000000 C    0  0  0  0  0  0  0
  2.514684  2.365600  0.000000 C    0  0  0  0  0  0  0
  1.800235  3.603078  0.000000 C    0  0  0  0  0  0  0
  1.800235  2.778093  0.000000 C    0  0  0  0  0  0  0
 -0.150265 -2.469990  0.000000 C    0  0  0  0  0  0  0
 -0.150265 -3.294975  0.000000 C    0  0  0  0  0  0  0
 -0.864777 -2.057497  0.000000 C    0  0  0  0  0  0  0
 -0.864777 -3.707467  0.000000 C    0  0  0  0  0  0  0
 -1.579226 -2.469990  0.000000 C    0  0  0  0  0  0  0
 -1.579226 -3.294975  0.000000 C    0  0  0  0  0  0  0
 -2.595384 -2.718478  0.000000 C    0  0  0  0  0  0  0
 -2.595384 -3.543463  0.000000 C    0  0  0  0  0  0  0
 -3.309896 -2.305985  0.000000 C    0  0  0  0  0  0  0
 -3.309896 -3.955955  0.000000 C    0  0  0  0  0  0  0
 -4.024345 -2.718478  0.000000 C    0  0  0  0  0  0  0
 -4.024345 -3.543463  0.000000 C    0  0  0  0  0  0  0
 -3.986941 -1.237475  0.000000 C    0  0  0  0  0  0  0
 -3.986941 -2.062459  0.000000 C    0  0  0  0  0  0  0
 -4.701453 -0.824982  0.000000 C    0  0  0  0  0  0  0
 -4.701453 -2.474952  0.000000 C    0  0  0  0  0  0  0
 -5.415902 -1.237475  0.000000 C    0  0  0  0  0  0  0
 -5.415902 -2.062459  0.000000 C    0  0  0  0  0  0  0
 -0.258443 -0.188875  0.000000 Rh   0  0  0  0  0  0  0
  1.650001  1.013804  0.000000 P    0  0  0  0  0  0  0
 -2.037620 -1.371705  0.000000 P    0  0  0  0  0  0  0
 -1.689700  0.993955  0.000000 N    0  0  0  0  0  0  0
 -2.288086  1.920433  0.000000 N    0  3  0  0  0  0  0
 -2.945435  2.859482  0.000000 N    0  5  0  0  0  0  0
  2.722910 -3.934625  0.000000 C    0  0  0  0  0  0  0
  1.901890 -4.015570  0.000000 C    0  0  0  0  0  0  0
  3.063305 -3.183123  0.000000 C    0  0  0  0  0  0  0
  1.421326 -3.344950  0.000000 C    0  0  0  0  0  0  0
  2.582744 -2.512566  0.000000 C    0  0  0  0  0  0  0
  1.761724 -2.593511  0.000000 C    0  0  0  0  0  0  0
  1.281162 -1.922953  0.000000 N    0  0  0  0  0  0  0
  0.835307 -1.228808  0.000000 C    0  0  0  0  0  0  0
  2.484220 -1.395300  0.000000 C    0  0  0  0  0  0  0
  0.597251 -3.384000  0.000000 C    0  0  0  0  0  0  0
  1  2  1  0  0  0  0
  1  3  2  0  0  0  0
  2  4  2  0  0  0  0
  3  5  1  0  0  0  0
  4  6  1  0  0  0  0
  5  6  2  0  0  0  0
  7  8  1  0  0  0  0
  7  9  2  0  0  0  0
  8 10  2  0  0  0  0
  9 11  1  0  0  0  0
 10 12  1  0  0  0  0
 11 12  2  0  0  0  0
 13 14  1  0  0  0  0
 13 15  2  0  0  0  0
 14 16  2  0  0  0  0
 15 17  1  0  0  0  0
 16 18  1  0  0  0  0
 17 18  2  0  0  0  0
 19 20  1  0  0  0  0
 19 21  2  0  0  0  0
 20 22  2  0  0  0  0
 21 23  1  0  0  0  0
 22 24  1  0  0  0  0
 23 24  2  0  0  0  0
 25 26  1  0  0  0  0
 25 27  2  0  0  0  0
 26 28  2  0  0  0  0
 27 29  1  0  0  0  0
 28 30  1  0  0  0  0
 29 30  2  0  0  0  0
 31 32  1  0  0  0  0
 31 33  2  0  0  0  0
 32 34  2  0  0  0  0
 33 35  1  0  0  0  0
 34 36  1  0  0  0  0
 35 36  2  0  0  0  0
 37 38  1  0  0  0  0
 37 39  1  0  0  0  0
 31 39  1  0  0  0  0
 27 39  1  0  0  0  0
 23 39  1  0  0  0  0
 16 38  1  0  0  0  0
 12 38  1  0  0  0  0
  5 38  1  0  0  0  0
 37 40  1  0  0  0  0
 40 41  2  0  0  0  0
 41 42  2  0  0  0  0
 43 44  1  0  0  0  0
 43 45  2  0  0  0  0
 44 46  2  0  0  0  0
 45 47  1  0  0  0  0
 46 48  1  0  0  0  0
 47 48  2  0  0  0  0
 48 49  1  0  0  0  0
 49 50  3  0  0  0  0
 47 51  1  0  0  0  0
 46 52  1  0  0  0  0
 50 37  1  0  0  0  0
M  END
> <NMREDATA_VERSION>
1.1

> <NMREDATA_LEVEL>
0

> <NMREDATA_SOLVENT>
DCCl3

> <NMREDATA_TEMPERATURE>
247

> <NMREDATA_FORMULA>
C45H44N4P2Rh

> <NMREDATA_SMILES>
N=N=N[Rh](P(c1ccccc1)(c1ccccc1)c1ccccc1)(P(c1ccccc1)(c1ccccc1)c1ccccc1)C#Nc1c(C)cccc1C

> <NMREDATA_ASSIGNMENT>
Rh37, -282.00, 37

> <NMREDATA_1D_103Rh>
-282.00, L=Rh37

$$$$
LaurenceCarlton-2008_00118.mol
  ChemDraw08202410292D

M  V30 COUNTS 52 58 0 0 0
  5.415902  0.243529  0.000000 C    0  0  0  0  0  0  0
  5.415902 -0.581457  0.000000 C    0  0  0  0  0  0  0
  4.701391  0.656021  0.000000 C    0  0  0  0  0  0  0
  4.701391 -0.993949  0.000000 C    0  0  0  0  0  0  0
  3.986941  0.243529  0.000000 C    0  0  0  0  0  0  0
  3.986941 -0.581457  0.000000 C    0  0  0  0  0  0  0
  4.938775  2.678723  0.000000 C    0  0  0  0  0  0  0
  4.938775  1.853738  0.000000 C    0  0  0  0  0  0  0
  4.224264  3.091215  0.000000 C    0  0  0  0  0  0  0
  4.224264  1.441245  0.000000 C    0  0  0  0  0  0  0
  3.509877  2.678723  0.000000 C    0  0  0  0  0  0  0
  3.509877  1.853738  0.000000 C    0  0  0  0  0  0  0
  3.229196  3.603078  0.000000 C    0  0  0  0  0  0  0
  3.229196  2.778093  0.000000 C    0  0  0  0  0  0  0
  2.514684  4.015570  0.000000 C    0  0  0  0  0  0  0
  2.514684  2.365600  0.000000 C    0  0  0  0  0  0  0
  1.800235  3.603078  0.000000 C    0  0  0  0  0  0  0
  1.800235  2.778093  0.000000 C    0  0  0  0  0  0  0
 -0.150265 -2.469990  0.000000 C    0  0  0  0  0  0  0
 -0.150265 -3.294975  0.000000 C    0  0  0  0  0  0  0
 -0.864777 -2.057497  0.000000 C    0  0  0  0  0  0  0
 -0.864777 -3.707467  0.000000 C    0  0  0  0  0  0  0
 -1.579226 -2.469990  0.000000 C    0  0  0  0  0  0  0
 -1.579226 -3.294975  0.000000 C    0  0  0  0  0  0  0
 -2.595384 -2.718478  0.000000 C    0  0  0  0  0  0  0
 -2.595384 -3.543463  0.000000 C    0  0  0  0  0  0  0
 -3.309896 -2.305985  0.000000 C    0  0  0  0  0  0  0
 -3.309896 -3.955955  0.000000 C    0  0  0  0  0  0  0
 -4.024345 -2.718478  0.000000 C    0  0  0  0  0  0  0
 -4.024345 -3.543463  0.000000 C    0  0  0  0  0  0  0
 -3.986941 -1.237475  0.000000 C    0  0  0  0  0  0  0
 -3.986941 -2.062459  0.000000 C    0  0  0  0  0  0  0
 -4.701453 -0.824982  0.000000 C    0  0  0  0  0  0  0
 -4.701453 -2.474952  0.000000 C    0  0  0  0  0  0  0
 -5.415902 -1.237475  0.000000 C    0  0  0  0  0  0  0
 -5.415902 -2.062459  0.000000 C    0  0  0  0  0  0  0
 -0.258443 -0.188875  0.000000 Rh   0  0  0  0  0  0  0
  1.650001  1.013804  0.000000 P    0  0  0  0  0  0  0
 -2.037620 -1.371705  0.000000 P    0  0  0  0  0  0  0
 -1.689700  0.993955  0.000000 N    0  0  0  0  0  0  0
 -2.288086  1.920433  0.000000 C    0  0  0  0  0  0  0
 -2.945435  2.859482  0.000000 O    0  0  0  0  0  0  0
  2.722910 -3.934625  0.000000 C    0  0  0  0  0  0  0
  1.901890 -4.015570  0.000000 C    0  0  0  0  0  0  0
  3.063305 -3.183123  0.000000 C    0  0  0  0  0  0  0
  1.421326 -3.344950  0.000000 C    0  0  0  0  0  0  0
  2.582744 -2.512566  0.000000 C    0  0  0  0  0  0  0
  1.761724 -2.593511  0.000000 C    0  0  0  0  0  0  0
  1.281162 -1.922953  0.000000 N    0  0  0  0  0  0  0
  0.835307 -1.228808  0.000000 C    0  0  0  0  0  0  0
  2.484220 -1.395300  0.000000 C    0  0  0  0  0  0  0
  0.597251 -3.384000  0.000000 C    0  0  0  0  0  0  0
  1  2  1  0  0  0  0
  1  3  2  0  0  0  0
  2  4  2  0  0  0  0
  3  5  1  0  0  0  0
  4  6  1  0  0  0  0
  5  6  2  0  0  0  0
  7  8  1  0  0  0  0
  7  9  2  0  0  0  0
  8 10  2  0  0  0  0
  9 11  1  0  0  0  0
 10 12  1  0  0  0  0
 11 12  2  0  0  0  0
 13 14  1  0  0  0  0
 13 15  2  0  0  0  0
 14 16  2  0  0  0  0
 15 17  1  0  0  0  0
 16 18  1  0  0  0  0
 17 18  2  0  0  0  0
 19 20  1  0  0  0  0
 19 21  2  0  0  0  0
 20 22  2  0  0  0  0
 21 23  1  0  0  0  0
 22 24  1  0  0  0  0
 23 24  2  0  0  0  0
 25 26  1  0  0  0  0
 25 27  2  0  0  0  0
 26 28  2  0  0  0  0
 27 29  1  0  0  0  0
 28 30  1  0  0  0  0
 29 30  2  0  0  0  0
 31 32  1  0  0  0  0
 31 33  2  0  0  0  0
 32 34  2  0  0  0  0
 33 35  1  0  0  0  0
 34 36  1  0  0  0  0
 35 36  2  0  0  0  0
 37 38  1  0  0  0  0
 37 39  1  0  0  0  0
 31 39  1  0  0  0  0
 27 39  1  0  0  0  0
 23 39  1  0  0  0  0
 16 38  1  0  0  0  0
 12 38  1  0  0  0  0
  5 38  1  0  0  0  0
 37 40  1  0  0  0  0
 40 41  2  0  0  0  0
 41 42  2  0  0  0  0
 43 44  1  0  0  0  0
 43 45  2  0  0  0  0
 44 46  2  0  0  0  0
 45 47  1  0  0  0  0
 46 48  1  0  0  0  0
 47 48  2  0  0  0  0
 48 49  1  0  0  0  0
 49 50  3  0  0  0  0
 47 51  1  0  0  0  0
 46 52  1  0  0  0  0
 50 37  1  0  0  0  0
M  END
> <NMREDATA_VERSION>
1.1

> <NMREDATA_LEVEL>
0

> <NMREDATA_SOLVENT>
DCCl3

> <NMREDATA_TEMPERATURE>
300

> <NMREDATA_FORMULA>
C46H42N2OP2Rh

> <NMREDATA_SMILES>
O=C=N[Rh](P(c1ccccc1)(c1ccccc1)c1ccccc1)(P(c1ccccc1)(c1ccccc1)c1ccccc1)C#Nc1c(C)cccc1C

> <NMREDATA_ASSIGNMENT>
Rh37, -312.00, 37

> <NMREDATA_1D_103Rh>
-312.00, L=Rh37

$$$$
LaurenceCarlton-2008_00119.mol
  ChemDraw08202410292D

M  V30 COUNTS 52 58 0 0 0
  5.415902  0.243529  0.000000 C    0  0  0  0  0  0  0
  5.415902 -0.581457  0.000000 C    0  0  0  0  0  0  0
  4.701391  0.656021  0.000000 C    0  0  0  0  0  0  0
  4.701391 -0.993949  0.000000 C    0  0  0  0  0  0  0
  3.986941  0.243529  0.000000 C    0  0  0  0  0  0  0
  3.986941 -0.581457  0.000000 C    0  0  0  0  0  0  0
  4.938775  2.678723  0.000000 C    0  0  0  0  0  0  0
  4.938775  1.853738  0.000000 C    0  0  0  0  0  0  0
  4.224264  3.091215  0.000000 C    0  0  0  0  0  0  0
  4.224264  1.441245  0.000000 C    0  0  0  0  0  0  0
  3.509877  2.678723  0.000000 C    0  0  0  0  0  0  0
  3.509877  1.853738  0.000000 C    0  0  0  0  0  0  0
  3.229196  3.603078  0.000000 C    0  0  0  0  0  0  0
  3.229196  2.778093  0.000000 C    0  0  0  0  0  0  0
  2.514684  4.015570  0.000000 C    0  0  0  0  0  0  0
  2.514684  2.365600  0.000000 C    0  0  0  0  0  0  0
  1.800235  3.603078  0.000000 C    0  0  0  0  0  0  0
  1.800235  2.778093  0.000000 C    0  0  0  0  0  0  0
 -0.150265 -2.469990  0.000000 C    0  0  0  0  0  0  0
 -0.150265 -3.294975  0.000000 C    0  0  0  0  0  0  0
 -0.864777 -2.057497  0.000000 C    0  0  0  0  0  0  0
 -0.864777 -3.707467  0.000000 C    0  0  0  0  0  0  0
 -1.579226 -2.469990  0.000000 C    0  0  0  0  0  0  0
 -1.579226 -3.294975  0.000000 C    0  0  0  0  0  0  0
 -2.595384 -2.718478  0.000000 C    0  0  0  0  0  0  0
 -2.595384 -3.543463  0.000000 C    0  0  0  0  0  0  0
 -3.309896 -2.305985  0.000000 C    0  0  0  0  0  0  0
 -3.309896 -3.955955  0.000000 C    0  0  0  0  0  0  0
 -4.024345 -2.718478  0.000000 C    0  0  0  0  0  0  0
 -4.024345 -3.543463  0.000000 C    0  0  0  0  0  0  0
 -3.986941 -1.237475  0.000000 C    0  0  0  0  0  0  0
 -3.986941 -2.062459  0.000000 C    0  0  0  0  0  0  0
 -4.701453 -0.824982  0.000000 C    0  0  0  0  0  0  0
 -4.701453 -2.474952  0.000000 C    0  0  0  0  0  0  0
 -5.415902 -1.237475  0.000000 C    0  0  0  0  0  0  0
 -5.415902 -2.062459  0.000000 C    0  0  0  0  0  0  0
 -0.258443 -0.188875  0.000000 Rh   0  0  0  0  0  0  0
  1.650001  1.013804  0.000000 P    0  0  0  0  0  0  0
 -2.037620 -1.371705  0.000000 P    0  0  0  0  0  0  0
 -1.689700  0.993955  0.000000 N    0  0  0  0  0  0  0
 -2.288086  1.920433  0.000000 C    0  0  0  0  0  0  0
 -2.945435  2.859482  0.000000 O    0  0  0  0  0  0  0
  2.722910 -3.934625  0.000000 C    0  0  0  0  0  0  0
  1.901890 -4.015570  0.000000 C    0  0  0  0  0  0  0
  3.063305 -3.183123  0.000000 C    0  0  0  0  0  0  0
  1.421326 -3.344950  0.000000 C    0  0  0  0  0  0  0
  2.582744 -2.512566  0.000000 C    0  0  0  0  0  0  0
  1.761724 -2.593511  0.000000 C    0  0  0  0  0  0  0
  1.281162 -1.922953  0.000000 N    0  0  0  0  0  0  0
  0.835307 -1.228808  0.000000 C    0  0  0  0  0  0  0
  2.484220 -1.395300  0.000000 C    0  0  0  0  0  0  0
  0.597251 -3.384000  0.000000 C    0  0  0  0  0  0  0
  1  2  1  0  0  0  0
  1  3  2  0  0  0  0
  2  4  2  0  0  0  0
  3  5  1  0  0  0  0
  4  6  1  0  0  0  0
  5  6  2  0  0  0  0
  7  8  1  0  0  0  0
  7  9  2  0  0  0  0
  8 10  2  0  0  0  0
  9 11  1  0  0  0  0
 10 12  1  0  0  0  0
 11 12  2  0  0  0  0
 13 14  1  0  0  0  0
 13 15  2  0  0  0  0
 14 16  2  0  0  0  0
 15 17  1  0  0  0  0
 16 18  1  0  0  0  0
 17 18  2  0  0  0  0
 19 20  1  0  0  0  0
 19 21  2  0  0  0  0
 20 22  2  0  0  0  0
 21 23  1  0  0  0  0
 22 24  1  0  0  0  0
 23 24  2  0  0  0  0
 25 26  1  0  0  0  0
 25 27  2  0  0  0  0
 26 28  2  0  0  0  0
 27 29  1  0  0  0  0
 28 30  1  0  0  0  0
 29 30  2  0  0  0  0
 31 32  1  0  0  0  0
 31 33  2  0  0  0  0
 32 34  2  0  0  0  0
 33 35  1  0  0  0  0
 34 36  1  0  0  0  0
 35 36  2  0  0  0  0
 37 38  1  0  0  0  0
 37 39  1  0  0  0  0
 31 39  1  0  0  0  0
 27 39  1  0  0  0  0
 23 39  1  0  0  0  0
 16 38  1  0  0  0  0
 12 38  1  0  0  0  0
  5 38  1  0  0  0  0
 37 40  1  0  0  0  0
 40 41  2  0  0  0  0
 41 42  2  0  0  0  0
 43 44  1  0  0  0  0
 43 45  2  0  0  0  0
 44 46  2  0  0  0  0
 45 47  1  0  0  0  0
 46 48  1  0  0  0  0
 47 48  2  0  0  0  0
 48 49  1  0  0  0  0
 49 50  3  0  0  0  0
 47 51  1  0  0  0  0
 46 52  1  0  0  0  0
 50 37  1  0  0  0  0
M  END
> <NMREDATA_VERSION>
1.1

> <NMREDATA_LEVEL>
0

> <NMREDATA_SOLVENT>
DCCl3

> <NMREDATA_TEMPERATURE>
247

> <NMREDATA_FORMULA>
C46H42N2OP2Rh

> <NMREDATA_SMILES>
O=C=N[Rh](P(c1ccccc1)(c1ccccc1)c1ccccc1)(P(c1ccccc1)(c1ccccc1)c1ccccc1)C#Nc1c(C)cccc1C

> <NMREDATA_ASSIGNMENT>
Rh37, -346.00, 37

> <NMREDATA_1D_103Rh>
-346.00, L=Rh37

$$$$
LaurenceCarlton-2008_00120.mol
  ChemDraw08202410292D

M  V30 COUNTS 52 58 0 0 0
  5.415902  0.243529  0.000000 C    0  0  0  0  0  0  0
  5.415902 -0.581457  0.000000 C    0  0  0  0  0  0  0
  4.701391  0.656021  0.000000 C    0  0  0  0  0  0  0
  4.701391 -0.993949  0.000000 C    0  0  0  0  0  0  0
  3.986941  0.243529  0.000000 C    0  0  0  0  0  0  0
  3.986941 -0.581457  0.000000 C    0  0  0  0  0  0  0
  4.938775  2.678723  0.000000 C    0  0  0  0  0  0  0
  4.938775  1.853738  0.000000 C    0  0  0  0  0  0  0
  4.224264  3.091215  0.000000 C    0  0  0  0  0  0  0
  4.224264  1.441245  0.000000 C    0  0  0  0  0  0  0
  3.509877  2.678723  0.000000 C    0  0  0  0  0  0  0
  3.509877  1.853738  0.000000 C    0  0  0  0  0  0  0
  3.229196  3.603078  0.000000 C    0  0  0  0  0  0  0
  3.229196  2.778093  0.000000 C    0  0  0  0  0  0  0
  2.514684  4.015570  0.000000 C    0  0  0  0  0  0  0
  2.514684  2.365600  0.000000 C    0  0  0  0  0  0  0
  1.800235  3.603078  0.000000 C    0  0  0  0  0  0  0
  1.800235  2.778093  0.000000 C    0  0  0  0  0  0  0
 -0.150265 -2.469990  0.000000 C    0  0  0  0  0  0  0
 -0.150265 -3.294975  0.000000 C    0  0  0  0  0  0  0
 -0.864777 -2.057497  0.000000 C    0  0  0  0  0  0  0
 -0.864777 -3.707467  0.000000 C    0  0  0  0  0  0  0
 -1.579226 -2.469990  0.000000 C    0  0  0  0  0  0  0
 -1.579226 -3.294975  0.000000 C    0  0  0  0  0  0  0
 -2.595384 -2.718478  0.000000 C    0  0  0  0  0  0  0
 -2.595384 -3.543463  0.000000 C    0  0  0  0  0  0  0
 -3.309896 -2.305985  0.000000 C    0  0  0  0  0  0  0
 -3.309896 -3.955955  0.000000 C    0  0  0  0  0  0  0
 -4.024345 -2.718478  0.000000 C    0  0  0  0  0  0  0
 -4.024345 -3.543463  0.000000 C    0  0  0  0  0  0  0
 -3.986941 -1.237475  0.000000 C    0  0  0  0  0  0  0
 -3.986941 -2.062459  0.000000 C    0  0  0  0  0  0  0
 -4.701453 -0.824982  0.000000 C    0  0  0  0  0  0  0
 -4.701453 -2.474952  0.000000 C    0  0  0  0  0  0  0
 -5.415902 -1.237475  0.000000 C    0  0  0  0  0  0  0
 -5.415902 -2.062459  0.000000 C    0  0  0  0  0  0  0
 -0.258443 -0.188875  0.000000 Rh   0  0  0  0  0  0  0
  1.650001  1.013804  0.000000 P    0  0  0  0  0  0  0
 -2.037620 -1.371705  0.000000 P    0  0  0  0  0  0  0
 -1.689700  0.993955  0.000000 N    0  0  0  0  0  0  0
 -2.288086  1.920433  0.000000 C    0  0  0  0  0  0  0
 -2.945435  2.859482  0.000000 S    0  0  0  0  0  0  0
  2.722910 -3.934625  0.000000 C    0  0  0  0  0  0  0
  1.901890 -4.015570  0.000000 C    0  0  0  0  0  0  0
  3.063305 -3.183123  0.000000 C    0  0  0  0  0  0  0
  1.421326 -3.344950  0.000000 C    0  0  0  0  0  0  0
  2.582744 -2.512566  0.000000 C    0  0  0  0  0  0  0
  1.761724 -2.593511  0.000000 C    0  0  0  0  0  0  0
  1.281162 -1.922953  0.000000 N    0  0  0  0  0  0  0
  0.835307 -1.228808  0.000000 C    0  0  0  0  0  0  0
  2.484220 -1.395300  0.000000 C    0  0  0  0  0  0  0
  0.597251 -3.384000  0.000000 C    0  0  0  0  0  0  0
  1  2  1  0  0  0  0
  1  3  2  0  0  0  0
  2  4  2  0  0  0  0
  3  5  1  0  0  0  0
  4  6  1  0  0  0  0
  5  6  2  0  0  0  0
  7  8  1  0  0  0  0
  7  9  2  0  0  0  0
  8 10  2  0  0  0  0
  9 11  1  0  0  0  0
 10 12  1  0  0  0  0
 11 12  2  0  0  0  0
 13 14  1  0  0  0  0
 13 15  2  0  0  0  0
 14 16  2  0  0  0  0
 15 17  1  0  0  0  0
 16 18  1  0  0  0  0
 17 18  2  0  0  0  0
 19 20  1  0  0  0  0
 19 21  2  0  0  0  0
 20 22  2  0  0  0  0
 21 23  1  0  0  0  0
 22 24  1  0  0  0  0
 23 24  2  0  0  0  0
 25 26  1  0  0  0  0
 25 27  2  0  0  0  0
 26 28  2  0  0  0  0
 27 29  1  0  0  0  0
 28 30  1  0  0  0  0
 29 30  2  0  0  0  0
 31 32  1  0  0  0  0
 31 33  2  0  0  0  0
 32 34  2  0  0  0  0
 33 35  1  0  0  0  0
 34 36  1  0  0  0  0
 35 36  2  0  0  0  0
 37 38  1  0  0  0  0
 37 39  1  0  0  0  0
 31 39  1  0  0  0  0
 27 39  1  0  0  0  0
 23 39  1  0  0  0  0
 16 38  1  0  0  0  0
 12 38  1  0  0  0  0
  5 38  1  0  0  0  0
 37 40  1  0  0  0  0
 40 41  2  0  0  0  0
 41 42  2  0  0  0  0
 43 44  1  0  0  0  0
 43 45  2  0  0  0  0
 44 46  2  0  0  0  0
 45 47  1  0  0  0  0
 46 48  1  0  0  0  0
 47 48  2  0  0  0  0
 48 49  1  0  0  0  0
 49 50  3  0  0  0  0
 47 51  1  0  0  0  0
 46 52  1  0  0  0  0
 50 37  1  0  0  0  0
M  END
> <NMREDATA_VERSION>
1.1

> <NMREDATA_LEVEL>
0

> <NMREDATA_SOLVENT>
DCCl3

> <NMREDATA_TEMPERATURE>
300

> <NMREDATA_FORMULA>
C46H42N2P2RhS

> <NMREDATA_SMILES>
S=C=N[Rh](P(c1ccccc1)(c1ccccc1)c1ccccc1)(P(c1ccccc1)(c1ccccc1)c1ccccc1)C#Nc1c(C)cccc1C

> <NMREDATA_ASSIGNMENT>
Rh37, -347.00, 37

> <NMREDATA_1D_103Rh>
-347.00, L=Rh37

$$$$
LaurenceCarlton-2008_00121.mol
  ChemDraw08202410292D

M  V30 COUNTS 52 58 0 0 0
  5.415902  0.243529  0.000000 C    0  0  0  0  0  0  0
  5.415902 -0.581457  0.000000 C    0  0  0  0  0  0  0
  4.701391  0.656021  0.000000 C    0  0  0  0  0  0  0
  4.701391 -0.993949  0.000000 C    0  0  0  0  0  0  0
  3.986941  0.243529  0.000000 C    0  0  0  0  0  0  0
  3.986941 -0.581457  0.000000 C    0  0  0  0  0  0  0
  4.938775  2.678723  0.000000 C    0  0  0  0  0  0  0
  4.938775  1.853738  0.000000 C    0  0  0  0  0  0  0
  4.224264  3.091215  0.000000 C    0  0  0  0  0  0  0
  4.224264  1.441245  0.000000 C    0  0  0  0  0  0  0
  3.509877  2.678723  0.000000 C    0  0  0  0  0  0  0
  3.509877  1.853738  0.000000 C    0  0  0  0  0  0  0
  3.229196  3.603078  0.000000 C    0  0  0  0  0  0  0
  3.229196  2.778093  0.000000 C    0  0  0  0  0  0  0
  2.514684  4.015570  0.000000 C    0  0  0  0  0  0  0
  2.514684  2.365600  0.000000 C    0  0  0  0  0  0  0
  1.800235  3.603078  0.000000 C    0  0  0  0  0  0  0
  1.800235  2.778093  0.000000 C    0  0  0  0  0  0  0
 -0.150265 -2.469990  0.000000 C    0  0  0  0  0  0  0
 -0.150265 -3.294975  0.000000 C    0  0  0  0  0  0  0
 -0.864777 -2.057497  0.000000 C    0  0  0  0  0  0  0
 -0.864777 -3.707467  0.000000 C    0  0  0  0  0  0  0
 -1.579226 -2.469990  0.000000 C    0  0  0  0  0  0  0
 -1.579226 -3.294975  0.000000 C    0  0  0  0  0  0  0
 -2.595384 -2.718478  0.000000 C    0  0  0  0  0  0  0
 -2.595384 -3.543463  0.000000 C    0  0  0  0  0  0  0
 -3.309896 -2.305985  0.000000 C    0  0  0  0  0  0  0
 -3.309896 -3.955955  0.000000 C    0  0  0  0  0  0  0
 -4.024345 -2.718478  0.000000 C    0  0  0  0  0  0  0
 -4.024345 -3.543463  0.000000 C    0  0  0  0  0  0  0
 -3.986941 -1.237475  0.000000 C    0  0  0  0  0  0  0
 -3.986941 -2.062459  0.000000 C    0  0  0  0  0  0  0
 -4.701453 -0.824982  0.000000 C    0  0  0  0  0  0  0
 -4.701453 -2.474952  0.000000 C    0  0  0  0  0  0  0
 -5.415902 -1.237475  0.000000 C    0  0  0  0  0  0  0
 -5.415902 -2.062459  0.000000 C    0  0  0  0  0  0  0
 -0.258443 -0.188875  0.000000 Rh   0  0  0  0  0  0  0
  1.650001  1.013804  0.000000 P    0  0  0  0  0  0  0
 -2.037620 -1.371705  0.000000 P    0  0  0  0  0  0  0
 -1.689700  0.993955  0.000000 N    0  0  0  0  0  0  0
 -2.288086  1.920433  0.000000 C    0  0  0  0  0  0  0
 -2.945435  2.859482  0.000000 S    0  0  0  0  0  0  0
  2.722910 -3.934625  0.000000 C    0  0  0  0  0  0  0
  1.901890 -4.015570  0.000000 C    0  0  0  0  0  0  0
  3.063305 -3.183123  0.000000 C    0  0  0  0  0  0  0
  1.421326 -3.344950  0.000000 C    0  0  0  0  0  0  0
  2.582744 -2.512566  0.000000 C    0  0  0  0  0  0  0
  1.761724 -2.593511  0.000000 C    0  0  0  0  0  0  0
  1.281162 -1.922953  0.000000 N    0  0  0  0  0  0  0
  0.835307 -1.228808  0.000000 C    0  0  0  0  0  0  0
  2.484220 -1.395300  0.000000 C    0  0  0  0  0  0  0
  0.597251 -3.384000  0.000000 C    0  0  0  0  0  0  0
  1  2  1  0  0  0  0
  1  3  2  0  0  0  0
  2  4  2  0  0  0  0
  3  5  1  0  0  0  0
  4  6  1  0  0  0  0
  5  6  2  0  0  0  0
  7  8  1  0  0  0  0
  7  9  2  0  0  0  0
  8 10  2  0  0  0  0
  9 11  1  0  0  0  0
 10 12  1  0  0  0  0
 11 12  2  0  0  0  0
 13 14  1  0  0  0  0
 13 15  2  0  0  0  0
 14 16  2  0  0  0  0
 15 17  1  0  0  0  0
 16 18  1  0  0  0  0
 17 18  2  0  0  0  0
 19 20  1  0  0  0  0
 19 21  2  0  0  0  0
 20 22  2  0  0  0  0
 21 23  1  0  0  0  0
 22 24  1  0  0  0  0
 23 24  2  0  0  0  0
 25 26  1  0  0  0  0
 25 27  2  0  0  0  0
 26 28  2  0  0  0  0
 27 29  1  0  0  0  0
 28 30  1  0  0  0  0
 29 30  2  0  0  0  0
 31 32  1  0  0  0  0
 31 33  2  0  0  0  0
 32 34  2  0  0  0  0
 33 35  1  0  0  0  0
 34 36  1  0  0  0  0
 35 36  2  0  0  0  0
 37 38  1  0  0  0  0
 37 39  1  0  0  0  0
 31 39  1  0  0  0  0
 27 39  1  0  0  0  0
 23 39  1  0  0  0  0
 16 38  1  0  0  0  0
 12 38  1  0  0  0  0
  5 38  1  0  0  0  0
 37 40  1  0  0  0  0
 40 41  2  0  0  0  0
 41 42  2  0  0  0  0
 43 44  1  0  0  0  0
 43 45  2  0  0  0  0
 44 46  2  0  0  0  0
 45 47  1  0  0  0  0
 46 48  1  0  0  0  0
 47 48  2  0  0  0  0
 48 49  1  0  0  0  0
 49 50  3  0  0  0  0
 47 51  1  0  0  0  0
 46 52  1  0  0  0  0
 50 37  1  0  0  0  0
M  END
> <NMREDATA_VERSION>
1.1

> <NMREDATA_LEVEL>
0

> <NMREDATA_SOLVENT>
DCCl3

> <NMREDATA_TEMPERATURE>
247

> <NMREDATA_FORMULA>
C46H42N2P2RhS

> <NMREDATA_SMILES>
S=C=N[Rh](P(c1ccccc1)(c1ccccc1)c1ccccc1)(P(c1ccccc1)(c1ccccc1)c1ccccc1)C#Nc1c(C)cccc1C

> <NMREDATA_ASSIGNMENT>
Rh37, -382.00, 37

> <NMREDATA_1D_103Rh>
-382.00, L=Rh37

$$$$
LaurenceCarlton-2008_00122.mol
  ChemDraw08202410302D

M  V30 COUNTS 54 60 0 0 0
  5.415902  0.243529  0.000000 C    0  0  0  0  0  0  0
  5.415902 -0.581457  0.000000 C    0  0  0  0  0  0  0
  4.701391  0.656021  0.000000 C    0  0  0  0  0  0  0
  4.701391 -0.993949  0.000000 C    0  0  0  0  0  0  0
  3.986941  0.243529  0.000000 C    0  0  0  0  0  0  0
  3.986941 -0.581457  0.000000 C    0  0  0  0  0  0  0
  4.938775  2.678723  0.000000 C    0  0  0  0  0  0  0
  4.938775  1.853738  0.000000 C    0  0  0  0  0  0  0
  4.224264  3.091215  0.000000 C    0  0  0  0  0  0  0
  4.224264  1.441245  0.000000 C    0  0  0  0  0  0  0
  3.509877  2.678723  0.000000 C    0  0  0  0  0  0  0
  3.509877  1.853738  0.000000 C    0  0  0  0  0  0  0
  3.229196  3.603078  0.000000 C    0  0  0  0  0  0  0
  3.229196  2.778093  0.000000 C    0  0  0  0  0  0  0
  2.514684  4.015570  0.000000 C    0  0  0  0  0  0  0
  2.514684  2.365600  0.000000 C    0  0  0  0  0  0  0
  1.800235  3.603078  0.000000 C    0  0  0  0  0  0  0
  1.800235  2.778093  0.000000 C    0  0  0  0  0  0  0
 -0.150265 -2.469990  0.000000 C    0  0  0  0  0  0  0
 -0.150265 -3.294975  0.000000 C    0  0  0  0  0  0  0
 -0.864777 -2.057497  0.000000 C    0  0  0  0  0  0  0
 -0.864777 -3.707467  0.000000 C    0  0  0  0  0  0  0
 -1.579226 -2.469990  0.000000 C    0  0  0  0  0  0  0
 -1.579226 -3.294975  0.000000 C    0  0  0  0  0  0  0
 -2.595384 -2.718478  0.000000 C    0  0  0  0  0  0  0
 -2.595384 -3.543463  0.000000 C    0  0  0  0  0  0  0
 -3.309896 -2.305985  0.000000 C    0  0  0  0  0  0  0
 -3.309896 -3.955955  0.000000 C    0  0  0  0  0  0  0
 -4.024345 -2.718478  0.000000 C    0  0  0  0  0  0  0
 -4.024345 -3.543463  0.000000 C    0  0  0  0  0  0  0
 -3.986941 -1.237475  0.000000 C    0  0  0  0  0  0  0
 -3.986941 -2.062459  0.000000 C    0  0  0  0  0  0  0
 -4.701453 -0.824982  0.000000 C    0  0  0  0  0  0  0
 -4.701453 -2.474952  0.000000 C    0  0  0  0  0  0  0
 -5.415902 -1.237475  0.000000 C    0  0  0  0  0  0  0
 -5.415902 -2.062459  0.000000 C    0  0  0  0  0  0  0
 -0.258443 -0.188875  0.000000 Rh   0  0  0  0  0  0  0
  1.650001  1.013804  0.000000 P    0  0  0  0  0  0  0
 -2.037620 -1.371705  0.000000 P    0  0  0  0  0  0  0
 -1.689700  0.993955  0.000000 N    0  0  0  0  0  0  0
  2.722910 -3.934625  0.000000 C    0  0  0  0  0  0  0
  1.901890 -4.015570  0.000000 C    0  0  0  0  0  0  0
  3.063305 -3.183123  0.000000 C    0  0  0  0  0  0  0
  1.421326 -3.344950  0.000000 C    0  0  0  0  0  0  0
  2.582744 -2.512566  0.000000 C    0  0  0  0  0  0  0
  1.761724 -2.593511  0.000000 C    0  0  0  0  0  0  0
  1.281162 -1.922953  0.000000 N    0  0  0  0  0  0  0
  0.835307 -1.228808  0.000000 C    0  0  0  0  0  0  0
  2.484220 -1.395300  0.000000 C    0  0  0  0  0  0  0
  0.597251 -3.384000  0.000000 C    0  0  0  0  0  0  0
 -2.462813  0.705995  0.000000 C    0  0  0  0  0  0  0
 -1.552523  1.807470  0.000000 C    0  0  0  0  0  0  0
 -3.259701  0.492470  0.000000 N    0  0  0  0  0  0  0
 -1.552523  2.632470  0.000000 N    0  0  0  0  0  0  0
  1  2  1  0  0  0  0
  1  3  2  0  0  0  0
  2  4  2  0  0  0  0
  3  5  1  0  0  0  0
  4  6  1  0  0  0  0
  5  6  2  0  0  0  0
  7  8  1  0  0  0  0
  7  9  2  0  0  0  0
  8 10  2  0  0  0  0
  9 11  1  0  0  0  0
 10 12  1  0  0  0  0
 11 12  2  0  0  0  0
 13 14  1  0  0  0  0
 13 15  2  0  0  0  0
 14 16  2  0  0  0  0
 15 17  1  0  0  0  0
 16 18  1  0  0  0  0
 17 18  2  0  0  0  0
 19 20  1  0  0  0  0
 19 21  2  0  0  0  0
 20 22  2  0  0  0  0
 21 23  1  0  0  0  0
 22 24  1  0  0  0  0
 23 24  2  0  0  0  0
 25 26  1  0  0  0  0
 25 27  2  0  0  0  0
 26 28  2  0  0  0  0
 27 29  1  0  0  0  0
 28 30  1  0  0  0  0
 29 30  2  0  0  0  0
 31 32  1  0  0  0  0
 31 33  2  0  0  0  0
 32 34  2  0  0  0  0
 33 35  1  0  0  0  0
 34 36  1  0  0  0  0
 35 36  2  0  0  0  0
 37 38  1  0  0  0  0
 37 39  1  0  0  0  0
 31 39  1  0  0  0  0
 27 39  1  0  0  0  0
 23 39  1  0  0  0  0
 16 38  1  0  0  0  0
 12 38  1  0  0  0  0
  5 38  1  0  0  0  0
 37 40  1  0  0  0  0
 41 42  1  0  0  0  0
 41 43  2  0  0  0  0
 42 44  2  0  0  0  0
 43 45  1  0  0  0  0
 44 46  1  0  0  0  0
 45 46  2  0  0  0  0
 46 47  1  0  0  0  0
 47 48  3  0  0  0  0
 45 49  1  0  0  0  0
 44 50  1  0  0  0  0
 48 37  1  0  0  0  0
 40 51  1  0  0  0  0
 40 52  1  0  0  0  0
 51 53  3  0  0  0  0
 52 54  3  0  0  0  0
M  END
> <NMREDATA_VERSION>
1.1

> <NMREDATA_LEVEL>
0

> <NMREDATA_SOLVENT>
DCCl3

> <NMREDATA_TEMPERATURE>
300

> <NMREDATA_FORMULA>
C47H42N4P2Rh

> <NMREDATA_SMILES>
N#CN([Rh](P(c1ccccc1)(c1ccccc1)c1ccccc1)(P(c1ccccc1)(c1ccccc1)c1ccccc1)C#Nc1c(C)cccc1C)C#N

> <NMREDATA_ASSIGNMENT>
Rh37, -363.00, 37

> <NMREDATA_1D_103Rh>
-363.00, L=Rh37

$$$$
LaurenceCarlton-2008_00123.mol
  ChemDraw08202410302D

M  V30 COUNTS 54 60 0 0 0
  5.415902  0.243529  0.000000 C    0  0  0  0  0  0  0
  5.415902 -0.581457  0.000000 C    0  0  0  0  0  0  0
  4.701391  0.656021  0.000000 C    0  0  0  0  0  0  0
  4.701391 -0.993949  0.000000 C    0  0  0  0  0  0  0
  3.986941  0.243529  0.000000 C    0  0  0  0  0  0  0
  3.986941 -0.581457  0.000000 C    0  0  0  0  0  0  0
  4.938775  2.678723  0.000000 C    0  0  0  0  0  0  0
  4.938775  1.853738  0.000000 C    0  0  0  0  0  0  0
  4.224264  3.091215  0.000000 C    0  0  0  0  0  0  0
  4.224264  1.441245  0.000000 C    0  0  0  0  0  0  0
  3.509877  2.678723  0.000000 C    0  0  0  0  0  0  0
  3.509877  1.853738  0.000000 C    0  0  0  0  0  0  0
  3.229196  3.603078  0.000000 C    0  0  0  0  0  0  0
  3.229196  2.778093  0.000000 C    0  0  0  0  0  0  0
  2.514684  4.015570  0.000000 C    0  0  0  0  0  0  0
  2.514684  2.365600  0.000000 C    0  0  0  0  0  0  0
  1.800235  3.603078  0.000000 C    0  0  0  0  0  0  0
  1.800235  2.778093  0.000000 C    0  0  0  0  0  0  0
 -0.150265 -2.469990  0.000000 C    0  0  0  0  0  0  0
 -0.150265 -3.294975  0.000000 C    0  0  0  0  0  0  0
 -0.864777 -2.057497  0.000000 C    0  0  0  0  0  0  0
 -0.864777 -3.707467  0.000000 C    0  0  0  0  0  0  0
 -1.579226 -2.469990  0.000000 C    0  0  0  0  0  0  0
 -1.579226 -3.294975  0.000000 C    0  0  0  0  0  0  0
 -2.595384 -2.718478  0.000000 C    0  0  0  0  0  0  0
 -2.595384 -3.543463  0.000000 C    0  0  0  0  0  0  0
 -3.309896 -2.305985  0.000000 C    0  0  0  0  0  0  0
 -3.309896 -3.955955  0.000000 C    0  0  0  0  0  0  0
 -4.024345 -2.718478  0.000000 C    0  0  0  0  0  0  0
 -4.024345 -3.543463  0.000000 C    0  0  0  0  0  0  0
 -3.986941 -1.237475  0.000000 C    0  0  0  0  0  0  0
 -3.986941 -2.062459  0.000000 C    0  0  0  0  0  0  0
 -4.701453 -0.824982  0.000000 C    0  0  0  0  0  0  0
 -4.701453 -2.474952  0.000000 C    0  0  0  0  0  0  0
 -5.415902 -1.237475  0.000000 C    0  0  0  0  0  0  0
 -5.415902 -2.062459  0.000000 C    0  0  0  0  0  0  0
 -0.258443 -0.188875  0.000000 Rh   0  0  0  0  0  0  0
  1.650001  1.013804  0.000000 P    0  0  0  0  0  0  0
 -2.037620 -1.371705  0.000000 P    0  0  0  0  0  0  0
 -1.689700  0.993955  0.000000 N    0  0  0  0  0  0  0
  2.722910 -3.934625  0.000000 C    0  0  0  0  0  0  0
  1.901890 -4.015570  0.000000 C    0  0  0  0  0  0  0
  3.063305 -3.183123  0.000000 C    0  0  0  0  0  0  0
  1.421326 -3.344950  0.000000 C    0  0  0  0  0  0  0
  2.582744 -2.512566  0.000000 C    0  0  0  0  0  0  0
  1.761724 -2.593511  0.000000 C    0  0  0  0  0  0  0
  1.281162 -1.922953  0.000000 N    0  0  0  0  0  0  0
  0.835307 -1.228808  0.000000 C    0  0  0  0  0  0  0
  2.484220 -1.395300  0.000000 C    0  0  0  0  0  0  0
  0.597251 -3.384000  0.000000 C    0  0  0  0  0  0  0
 -2.462813  0.705995  0.000000 C    0  0  0  0  0  0  0
 -1.552523  1.807470  0.000000 C    0  0  0  0  0  0  0
 -3.259701  0.492470  0.000000 N    0  0  0  0  0  0  0
 -1.552523  2.632470  0.000000 N    0  0  0  0  0  0  0
  1  2  1  0  0  0  0
  1  3  2  0  0  0  0
  2  4  2  0  0  0  0
  3  5  1  0  0  0  0
  4  6  1  0  0  0  0
  5  6  2  0  0  0  0
  7  8  1  0  0  0  0
  7  9  2  0  0  0  0
  8 10  2  0  0  0  0
  9 11  1  0  0  0  0
 10 12  1  0  0  0  0
 11 12  2  0  0  0  0
 13 14  1  0  0  0  0
 13 15  2  0  0  0  0
 14 16  2  0  0  0  0
 15 17  1  0  0  0  0
 16 18  1  0  0  0  0
 17 18  2  0  0  0  0
 19 20  1  0  0  0  0
 19 21  2  0  0  0  0
 20 22  2  0  0  0  0
 21 23  1  0  0  0  0
 22 24  1  0  0  0  0
 23 24  2  0  0  0  0
 25 26  1  0  0  0  0
 25 27  2  0  0  0  0
 26 28  2  0  0  0  0
 27 29  1  0  0  0  0
 28 30  1  0  0  0  0
 29 30  2  0  0  0  0
 31 32  1  0  0  0  0
 31 33  2  0  0  0  0
 32 34  2  0  0  0  0
 33 35  1  0  0  0  0
 34 36  1  0  0  0  0
 35 36  2  0  0  0  0
 37 38  1  0  0  0  0
 37 39  1  0  0  0  0
 31 39  1  0  0  0  0
 27 39  1  0  0  0  0
 23 39  1  0  0  0  0
 16 38  1  0  0  0  0
 12 38  1  0  0  0  0
  5 38  1  0  0  0  0
 37 40  1  0  0  0  0
 41 42  1  0  0  0  0
 41 43  2  0  0  0  0
 42 44  2  0  0  0  0
 43 45  1  0  0  0  0
 44 46  1  0  0  0  0
 45 46  2  0  0  0  0
 46 47  1  0  0  0  0
 47 48  3  0  0  0  0
 45 49  1  0  0  0  0
 44 50  1  0  0  0  0
 48 37  1  0  0  0  0
 40 51  1  0  0  0  0
 40 52  1  0  0  0  0
 51 53  3  0  0  0  0
 52 54  3  0  0  0  0
M  END
> <NMREDATA_VERSION>
1.1

> <NMREDATA_LEVEL>
0

> <NMREDATA_SOLVENT>
DCCl3

> <NMREDATA_TEMPERATURE>
247

> <NMREDATA_FORMULA>
C47H42N4P2Rh

> <NMREDATA_SMILES>
N#CN([Rh](P(c1ccccc1)(c1ccccc1)c1ccccc1)(P(c1ccccc1)(c1ccccc1)c1ccccc1)C#Nc1c(C)cccc1C)C#N

> <NMREDATA_ASSIGNMENT>
Rh37, -397.00, 37

> <NMREDATA_1D_103Rh>
-397.00, L=Rh37

$$$$
LaurenceCarlton-2008_00124.mol
  ChemDraw08202410322D

M  V30 COUNTS 70 79 0 0 0
 -0.562799 -2.461480  0.000000 C    0  0  0  0  0  0  0
 -0.562799 -3.286480  0.000000 C    0  0  0  0  0  0  0
 -1.277323 -2.048980  0.000000 C    0  0  0  0  0  0  0
 -1.277323 -3.698980  0.000000 C    0  0  0  0  0  0  0
 -1.991785 -2.461480  0.000000 C    0  0  0  0  0  0  0
 -1.991785 -3.286480  0.000000 C    0  0  0  0  0  0  0
 -2.998037 -2.411794  0.000000 C    0  0  0  0  0  0  0
 -2.998037 -3.236794  0.000000 C    0  0  0  0  0  0  0
 -3.712561 -1.999294  0.000000 C    0  0  0  0  0  0  0
 -3.712561 -3.649294  0.000000 C    0  0  0  0  0  0  0
 -4.427023 -2.411794  0.000000 C    0  0  0  0  0  0  0
 -4.427023 -3.236794  0.000000 C    0  0  0  0  0  0  0
  6.643543  0.311697  0.000000 C    0  0  0  0  0  0  0
  6.643543 -0.513302  0.000000 C    0  0  0  0  0  0  0
  5.929018  0.724197  0.000000 C    0  0  0  0  0  0  0
  5.929018 -0.925802  0.000000 C    0  0  0  0  0  0  0
  5.214556  0.311697  0.000000 C    0  0  0  0  0  0  0
  5.214556 -0.513302  0.000000 C    0  0  0  0  0  0  0
  5.937827  2.697249  0.000000 C    0  0  0  0  0  0  0
  5.937827  1.872249  0.000000 C    0  0  0  0  0  0  0
  5.223302  3.109748  0.000000 C    0  0  0  0  0  0  0
  5.223302  1.459749  0.000000 C    0  0  0  0  0  0  0
  4.508841  2.697249  0.000000 C    0  0  0  0  0  0  0
  4.508841  1.872249  0.000000 C    0  0  0  0  0  0  0
  0.770289  0.217287  0.000000 Rh   0  0  0  0  0  0  0
  2.340828  1.201333  0.000000 P    0  0  0  0  0  0  0
 -1.177889 -0.925802  0.000000 P    0  0  0  0  0  0  0
  3.850453  3.591846  0.000000 C    0  0  0  0  0  0  0
  3.850453  2.766846  0.000000 C    0  0  0  0  0  0  0
  3.135928  4.004346  0.000000 C    0  0  0  0  0  0  0
  3.135928  2.354347  0.000000 C    0  0  0  0  0  0  0
  2.421467  3.591846  0.000000 C    0  0  0  0  0  0  0
  2.421467  2.766846  0.000000 C    0  0  0  0  0  0  0
 -3.693827 -0.374170  0.000000 C    0  0  0  0  0  0  0
 -3.693827 -1.199169  0.000000 C    0  0  0  0  0  0  0
 -4.408352  0.038330  0.000000 C    0  0  0  0  0  0  0
 -4.408352 -1.611668  0.000000 C    0  0  0  0  0  0  0
 -5.122814 -0.374170  0.000000 C    0  0  0  0  0  0  0
 -5.122814 -1.199169  0.000000 C    0  0  0  0  0  0  0
 -1.192590  0.906193  0.000000 N    0  0  0  0  0  0  0
 -1.804688  1.590835  0.000000 C    0  0  0  0  0  0  0
 -5.214619  3.025264  0.000000 C    0  0  0  0  0  0  0
 -5.214619  2.200264  0.000000 C    0  0  0  0  0  0  0
 -5.929142  3.437764  0.000000 C    0  0  0  0  0  0  0
 -5.929142  1.787764  0.000000 C    0  0  0  0  0  0  0
 -6.643543  3.025264  0.000000 C    0  0  0  0  0  0  0
 -6.643543  2.200264  0.000000 C    0  0  0  0  0  0  0
 -2.878753  1.564083  0.000000 C    0  0  0  0  0  0  0
 -2.878753  0.739084  0.000000 C    0  0  0  0  0  0  0
 -3.593277  1.976583  0.000000 C    0  0  0  0  0  0  0
 -3.593277  0.326584  0.000000 C    0  0  0  0  0  0  0
 -4.307739  1.564083  0.000000 C    0  0  0  0  0  0  0
 -4.307739  0.739084  0.000000 C    0  0  0  0  0  0  0
 -3.027873  3.890025  0.000000 C    0  0  0  0  0  0  0
 -3.027873  3.065025  0.000000 C    0  0  0  0  0  0  0
 -3.742397  4.302524  0.000000 C    0  0  0  0  0  0  0
 -3.742397  2.652525  0.000000 C    0  0  0  0  0  0  0
 -4.456798  3.890025  0.000000 C    0  0  0  0  0  0  0
 -4.456798  3.065025  0.000000 C    0  0  0  0  0  0  0
 -2.460112  2.314585  0.000000 B    0  0  0  0  0  0  0
  2.839011 -3.256746  0.000000 C    0  0  0  0  0  0  0
  3.442772 -2.694522  0.000000 C    0  0  0  0  0  0  0
  3.024068 -4.060771  0.000000 C    0  0  0  0  0  0  0
  4.231590 -2.936321  0.000000 C    0  0  0  0  0  0  0
  3.812844 -4.302524  0.000000 C    0  0  0  0  0  0  0
  4.416605 -3.740300  0.000000 C    0  0  0  0  0  0  0
  2.050235 -3.014994  0.000000 C    0  0  0  0  0  0  0
  2.951882 -1.941267  0.000000 N    0  0  0  0  0  0  0
  1.951606 -0.998348  0.000000 C    0  0  0  0  0  0  0
  4.835362 -2.374107  0.000000 C    0  0  0  0  0  0  0
  1  2  1  0  0  0  0
  1  3  2  0  0  0  0
  2  4  2  0  0  0  0
  3  5  1  0  0  0  0
  4  6  1  0  0  0  0
  5  6  2  0  0  0  0
  7  8  1  0  0  0  0
  7  9  2  0  0  0  0
  8 10  2  0  0  0  0
  9 11  1  0  0  0  0
 10 12  1  0  0  0  0
 11 12  2  0  0  0  0
 13 14  1  0  0  0  0
 13 15  2  0  0  0  0
 14 16  2  0  0  0  0
 15 17  1  0  0  0  0
 16 18  1  0  0  0  0
 17 18  2  0  0  0  0
 19 20  1  0  0  0  0
 19 21  2  0  0  0  0
 20 22  2  0  0  0  0
 21 23  1  0  0  0  0
 22 24  1  0  0  0  0
 23 24  2  0  0  0  0
 25 26  1  0  0  0  0
 25 27  1  0  0  0  0
 28 29  1  0  0  0  0
 28 30  2  0  0  0  0
 29 31  2  0  0  0  0
 30 32  1  0  0  0  0
 31 33  1  0  0  0  0
 32 33  2  0  0  0  0
 26 31  1  0  0  0  0
 24 26  1  0  0  0  0
 17 26  1  0  0  0  0
 34 35  1  0  0  0  0
 34 36  2  0  0  0  0
 35 37  2  0  0  0  0
 36 38  1  0  0  0  0
 37 39  1  0  0  0  0
 38 39  2  0  0  0  0
 27 34  1  0  0  0  0
  7 27  1  0  0  0  0
  3 27  1  0  0  0  0
 40 41  3  0  0  0  0
 42 43  1  0  0  0  0
 42 44  2  0  0  0  0
 43 45  2  0  0  0  0
 44 46  1  0  0  0  0
 45 47  1  0  0  0  0
 46 47  2  0  0  0  0
 48 49  1  0  0  0  0
 48 50  2  0  0  0  0
 49 51  2  0  0  0  0
 50 52  1  0  0  0  0
 51 53  1  0  0  0  0
 52 53  2  0  0  0  0
 54 55  1  0  0  0  0
 54 56  2  0  0  0  0
 55 57  2  0  0  0  0
 56 58  1  0  0  0  0
 57 59  1  0  0  0  0
 58 59  2  0  0  0  0
 55 60  1  0  0  0  0
 48 60  1  0  0  0  0
 43 60  1  0  0  0  0
 41 60  1  0  0  0  0
 61 62  1  0  0  0  0
 61 63  2  0  0  0  0
 62 64  2  0  0  0  0
 63 65  1  0  0  0  0
 64 66  1  0  0  0  0
 65 66  2  0  0  0  0
 61 67  1  0  0  0  0
 62 68  1  0  0  0  0
 68 69  3  0  0  0  0
 64 70  1  0  0  0  0
 25 69  1  0  0  0  0
 40 25  1  0  0  0  0
M  END
> <NMREDATA_VERSION>
1.1

> <NMREDATA_LEVEL>
0

> <NMREDATA_SOLVENT>
DCCl3

> <NMREDATA_TEMPERATURE>
300

> <NMREDATA_FORMULA>
C64H58BN2P2Rh

> <NMREDATA_SMILES>
Cc1cccc(c1N#C[Rh](P(c1ccccc1)(c1ccccc1)c1ccccc1)(P(c1ccccc1)(c1ccccc1)c1ccccc1)N#C[B](c1ccccc1)(c1ccccc1)c1ccccc1)C

> <NMREDATA_ASSIGNMENT>
Rh25, -388.00, 25

> <NMREDATA_1D_103Rh>
-388.00, L=Rh25

$$$$
LaurenceCarlton-2008_00125.mol
  ChemDraw08202410352D

M  V30 COUNTS 70 79 0 0 0
 -0.562799 -2.461480  0.000000 C    0  0  0  0  0  0  0
 -0.562799 -3.286480  0.000000 C    0  0  0  0  0  0  0
 -1.277323 -2.048980  0.000000 C    0  0  0  0  0  0  0
 -1.277323 -3.698980  0.000000 C    0  0  0  0  0  0  0
 -1.991785 -2.461480  0.000000 C    0  0  0  0  0  0  0
 -1.991785 -3.286480  0.000000 C    0  0  0  0  0  0  0
 -2.998037 -2.411794  0.000000 C    0  0  0  0  0  0  0
 -2.998037 -3.236794  0.000000 C    0  0  0  0  0  0  0
 -3.712561 -1.999294  0.000000 C    0  0  0  0  0  0  0
 -3.712561 -3.649294  0.000000 C    0  0  0  0  0  0  0
 -4.427023 -2.411794  0.000000 C    0  0  0  0  0  0  0
 -4.427023 -3.236794  0.000000 C    0  0  0  0  0  0  0
  6.643543  0.311697  0.000000 C    0  0  0  0  0  0  0
  6.643543 -0.513302  0.000000 C    0  0  0  0  0  0  0
  5.929018  0.724197  0.000000 C    0  0  0  0  0  0  0
  5.929018 -0.925802  0.000000 C    0  0  0  0  0  0  0
  5.214556  0.311697  0.000000 C    0  0  0  0  0  0  0
  5.214556 -0.513302  0.000000 C    0  0  0  0  0  0  0
  5.937827  2.697249  0.000000 C    0  0  0  0  0  0  0
  5.937827  1.872249  0.000000 C    0  0  0  0  0  0  0
  5.223302  3.109748  0.000000 C    0  0  0  0  0  0  0
  5.223302  1.459749  0.000000 C    0  0  0  0  0  0  0
  4.508841  2.697249  0.000000 C    0  0  0  0  0  0  0
  4.508841  1.872249  0.000000 C    0  0  0  0  0  0  0
  0.770289  0.217287  0.000000 Rh   0  0  0  0  0  0  0
  2.340828  1.201333  0.000000 P    0  0  0  0  0  0  0
 -1.177889 -0.925802  0.000000 P    0  0  0  0  0  0  0
  3.850453  3.591846  0.000000 C    0  0  0  0  0  0  0
  3.850453  2.766846  0.000000 C    0  0  0  0  0  0  0
  3.135928  4.004346  0.000000 C    0  0  0  0  0  0  0
  3.135928  2.354347  0.000000 C    0  0  0  0  0  0  0
  2.421467  3.591846  0.000000 C    0  0  0  0  0  0  0
  2.421467  2.766846  0.000000 C    0  0  0  0  0  0  0
 -3.693827 -0.374170  0.000000 C    0  0  0  0  0  0  0
 -3.693827 -1.199169  0.000000 C    0  0  0  0  0  0  0
 -4.408352  0.038330  0.000000 C    0  0  0  0  0  0  0
 -4.408352 -1.611668  0.000000 C    0  0  0  0  0  0  0
 -5.122814 -0.374170  0.000000 C    0  0  0  0  0  0  0
 -5.122814 -1.199169  0.000000 C    0  0  0  0  0  0  0
 -1.192590  0.906193  0.000000 N    0  0  0  0  0  0  0
 -1.804688  1.590835  0.000000 C    0  0  0  0  0  0  0
 -5.214619  3.025264  0.000000 C    0  0  0  0  0  0  0
 -5.214619  2.200264  0.000000 C    0  0  0  0  0  0  0
 -5.929142  3.437764  0.000000 C    0  0  0  0  0  0  0
 -5.929142  1.787764  0.000000 C    0  0  0  0  0  0  0
 -6.643543  3.025264  0.000000 C    0  0  0  0  0  0  0
 -6.643543  2.200264  0.000000 C    0  0  0  0  0  0  0
 -2.878753  1.564083  0.000000 C    0  0  0  0  0  0  0
 -2.878753  0.739084  0.000000 C    0  0  0  0  0  0  0
 -3.593277  1.976583  0.000000 C    0  0  0  0  0  0  0
 -3.593277  0.326584  0.000000 C    0  0  0  0  0  0  0
 -4.307739  1.564083  0.000000 C    0  0  0  0  0  0  0
 -4.307739  0.739084  0.000000 C    0  0  0  0  0  0  0
 -3.027873  3.890025  0.000000 C    0  0  0  0  0  0  0
 -3.027873  3.065025  0.000000 C    0  0  0  0  0  0  0
 -3.742397  4.302524  0.000000 C    0  0  0  0  0  0  0
 -3.742397  2.652525  0.000000 C    0  0  0  0  0  0  0
 -4.456798  3.890025  0.000000 C    0  0  0  0  0  0  0
 -4.456798  3.065025  0.000000 C    0  0  0  0  0  0  0
 -2.460112  2.314585  0.000000 B    0  0  0  0  0  0  0
  2.839011 -3.256746  0.000000 C    0  0  0  0  0  0  0
  3.442772 -2.694522  0.000000 C    0  0  0  0  0  0  0
  3.024068 -4.060771  0.000000 C    0  0  0  0  0  0  0
  4.231590 -2.936321  0.000000 C    0  0  0  0  0  0  0
  3.812844 -4.302524  0.000000 C    0  0  0  0  0  0  0
  4.416605 -3.740300  0.000000 C    0  0  0  0  0  0  0
  2.050235 -3.014994  0.000000 C    0  0  0  0  0  0  0
  2.951882 -1.941267  0.000000 N    0  0  0  0  0  0  0
  1.951606 -0.998348  0.000000 C    0  0  0  0  0  0  0
  4.835362 -2.374107  0.000000 C    0  0  0  0  0  0  0
  1  2  1  0  0  0  0
  1  3  2  0  0  0  0
  2  4  2  0  0  0  0
  3  5  1  0  0  0  0
  4  6  1  0  0  0  0
  5  6  2  0  0  0  0
  7  8  1  0  0  0  0
  7  9  2  0  0  0  0
  8 10  2  0  0  0  0
  9 11  1  0  0  0  0
 10 12  1  0  0  0  0
 11 12  2  0  0  0  0
 13 14  1  0  0  0  0
 13 15  2  0  0  0  0
 14 16  2  0  0  0  0
 15 17  1  0  0  0  0
 16 18  1  0  0  0  0
 17 18  2  0  0  0  0
 19 20  1  0  0  0  0
 19 21  2  0  0  0  0
 20 22  2  0  0  0  0
 21 23  1  0  0  0  0
 22 24  1  0  0  0  0
 23 24  2  0  0  0  0
 25 26  1  0  0  0  0
 25 27  1  0  0  0  0
 28 29  1  0  0  0  0
 28 30  2  0  0  0  0
 29 31  2  0  0  0  0
 30 32  1  0  0  0  0
 31 33  1  0  0  0  0
 32 33  2  0  0  0  0
 26 31  1  0  0  0  0
 24 26  1  0  0  0  0
 17 26  1  0  0  0  0
 34 35  1  0  0  0  0
 34 36  2  0  0  0  0
 35 37  2  0  0  0  0
 36 38  1  0  0  0  0
 37 39  1  0  0  0  0
 38 39  2  0  0  0  0
 27 34  1  0  0  0  0
  7 27  1  0  0  0  0
  3 27  1  0  0  0  0
 40 41  3  0  0  0  0
 42 43  1  0  0  0  0
 42 44  2  0  0  0  0
 43 45  2  0  0  0  0
 44 46  1  0  0  0  0
 45 47  1  0  0  0  0
 46 47  2  0  0  0  0
 48 49  1  0  0  0  0
 48 50  2  0  0  0  0
 49 51  2  0  0  0  0
 50 52  1  0  0  0  0
 51 53  1  0  0  0  0
 52 53  2  0  0  0  0
 54 55  1  0  0  0  0
 54 56  2  0  0  0  0
 55 57  2  0  0  0  0
 56 58  1  0  0  0  0
 57 59  1  0  0  0  0
 58 59  2  0  0  0  0
 55 60  1  0  0  0  0
 48 60  1  0  0  0  0
 43 60  1  0  0  0  0
 41 60  1  0  0  0  0
 61 62  1  0  0  0  0
 61 63  2  0  0  0  0
 62 64  2  0  0  0  0
 63 65  1  0  0  0  0
 64 66  1  0  0  0  0
 65 66  2  0  0  0  0
 61 67  1  0  0  0  0
 62 68  1  0  0  0  0
 68 69  3  0  0  0  0
 64 70  1  0  0  0  0
 25 69  1  0  0  0  0
 40 25  1  0  0  0  0
M  END
> <NMREDATA_VERSION>
1.1

> <NMREDATA_LEVEL>
0

> <NMREDATA_SOLVENT>
DCCl3

> <NMREDATA_TEMPERATURE>
247

> <NMREDATA_FORMULA>
C64H58BN2P2Rh

> <NMREDATA_SMILES>
Cc1cccc(c1N#C[Rh](P(c1ccccc1)(c1ccccc1)c1ccccc1)(P(c1ccccc1)(c1ccccc1)c1ccccc1)N#C[B](c1ccccc1)(c1ccccc1)c1ccccc1)C

> <NMREDATA_ASSIGNMENT>
Rh25, -420.00, 25

> <NMREDATA_1D_103Rh>
-420.00, L=Rh25

$$$$
LaurenceCarlton-2008_00128.mol
  ChemDraw08202410332D

M  V30 COUNTS 50 56 0 0 0
  5.415902  0.243529  0.000000 C    0  0  0  0  0  0  0
  5.415902 -0.581457  0.000000 C    0  0  0  0  0  0  0
  4.701391  0.656021  0.000000 C    0  0  0  0  0  0  0
  4.701391 -0.993949  0.000000 C    0  0  0  0  0  0  0
  3.986941  0.243529  0.000000 C    0  0  0  0  0  0  0
  3.986941 -0.581457  0.000000 C    0  0  0  0  0  0  0
  4.938775  2.678723  0.000000 C    0  0  0  0  0  0  0
  4.938775  1.853738  0.000000 C    0  0  0  0  0  0  0
  4.224264  3.091215  0.000000 C    0  0  0  0  0  0  0
  4.224264  1.441245  0.000000 C    0  0  0  0  0  0  0
  3.509877  2.678723  0.000000 C    0  0  0  0  0  0  0
  3.509877  1.853738  0.000000 C    0  0  0  0  0  0  0
  3.229196  3.603078  0.000000 C    0  0  0  0  0  0  0
  3.229196  2.778093  0.000000 C    0  0  0  0  0  0  0
  2.514684  4.015570  0.000000 C    0  0  0  0  0  0  0
  2.514684  2.365600  0.000000 C    0  0  0  0  0  0  0
  1.800235  3.603078  0.000000 C    0  0  0  0  0  0  0
  1.800235  2.778093  0.000000 C    0  0  0  0  0  0  0
 -0.150265 -2.469990  0.000000 C    0  0  0  0  0  0  0
 -0.150265 -3.294975  0.000000 C    0  0  0  0  0  0  0
 -0.864777 -2.057497  0.000000 C    0  0  0  0  0  0  0
 -0.864777 -3.707467  0.000000 C    0  0  0  0  0  0  0
 -1.579226 -2.469990  0.000000 C    0  0  0  0  0  0  0
 -1.579226 -3.294975  0.000000 C    0  0  0  0  0  0  0
 -2.595384 -2.718478  0.000000 C    0  0  0  0  0  0  0
 -2.595384 -3.543463  0.000000 C    0  0  0  0  0  0  0
 -3.309896 -2.305985  0.000000 C    0  0  0  0  0  0  0
 -3.309896 -3.955955  0.000000 C    0  0  0  0  0  0  0
 -4.024345 -2.718478  0.000000 C    0  0  0  0  0  0  0
 -4.024345 -3.543463  0.000000 C    0  0  0  0  0  0  0
 -3.986941 -1.237475  0.000000 C    0  0  0  0  0  0  0
 -3.986941 -2.062459  0.000000 C    0  0  0  0  0  0  0
 -4.701453 -0.824982  0.000000 C    0  0  0  0  0  0  0
 -4.701453 -2.474952  0.000000 C    0  0  0  0  0  0  0
 -5.415902 -1.237475  0.000000 C    0  0  0  0  0  0  0
 -5.415902 -2.062459  0.000000 C    0  0  0  0  0  0  0
 -0.258443 -0.188875  0.000000 Rh   0  0  0  0  0  0  0
  1.650001  1.013804  0.000000 P    0  0  0  0  0  0  0
 -2.037620 -1.371705  0.000000 P    0  0  0  0  0  0  0
 -1.689700  0.993955  0.000000 Cl   0  0  0  0  0  0  0
  2.722910 -3.934625  0.000000 C    0  0  0  0  0  0  0
  1.901890 -4.015570  0.000000 C    0  0  0  0  0  0  0
  3.063305 -3.183123  0.000000 C    0  0  0  0  0  0  0
  1.421326 -3.344950  0.000000 C    0  0  0  0  0  0  0
  2.582744 -2.512566  0.000000 C    0  0  0  0  0  0  0
  1.761724 -2.593511  0.000000 C    0  0  0  0  0  0  0
  1.281162 -1.922953  0.000000 N    0  0  0  0  0  0  0
  0.835307 -1.228808  0.000000 C    0  0  0  0  0  0  0
  2.484220 -1.395300  0.000000 C    0  0  0  0  0  0  0
  0.597251 -3.384000  0.000000 C    0  0  0  0  0  0  0
  1  2  1  0  0  0  0
  1  3  2  0  0  0  0
  2  4  2  0  0  0  0
  3  5  1  0  0  0  0
  4  6  1  0  0  0  0
  5  6  2  0  0  0  0
  7  8  1  0  0  0  0
  7  9  2  0  0  0  0
  8 10  2  0  0  0  0
  9 11  1  0  0  0  0
 10 12  1  0  0  0  0
 11 12  2  0  0  0  0
 13 14  1  0  0  0  0
 13 15  2  0  0  0  0
 14 16  2  0  0  0  0
 15 17  1  0  0  0  0
 16 18  1  0  0  0  0
 17 18  2  0  0  0  0
 19 20  1  0  0  0  0
 19 21  2  0  0  0  0
 20 22  2  0  0  0  0
 21 23  1  0  0  0  0
 22 24  1  0  0  0  0
 23 24  2  0  0  0  0
 25 26  1  0  0  0  0
 25 27  2  0  0  0  0
 26 28  2  0  0  0  0
 27 29  1  0  0  0  0
 28 30  1  0  0  0  0
 29 30  2  0  0  0  0
 31 32  1  0  0  0  0
 31 33  2  0  0  0  0
 32 34  2  0  0  0  0
 33 35  1  0  0  0  0
 34 36  1  0  0  0  0
 35 36  2  0  0  0  0
 37 38  1  0  0  0  0
 37 39  1  0  0  0  0
 31 39  1  0  0  0  0
 27 39  1  0  0  0  0
 23 39  1  0  0  0  0
 16 38  1  0  0  0  0
 12 38  1  0  0  0  0
  5 38  1  0  0  0  0
 37 40  1  0  0  0  0
 41 42  1  0  0  0  0
 41 43  2  0  0  0  0
 42 44  2  0  0  0  0
 43 45  1  0  0  0  0
 44 46  1  0  0  0  0
 45 46  2  0  0  0  0
 46 47  1  0  0  0  0
 47 48  3  0  0  0  0
 45 49  1  0  0  0  0
 44 50  1  0  0  0  0
 48 37  1  0  0  0  0
M  END
> <NMREDATA_VERSION>
1.1

> <NMREDATA_LEVEL>
0

> <NMREDATA_SOLVENT>
DCCl3

> <NMREDATA_TEMPERATURE>
300

> <NMREDATA_FORMULA>
C45H42ClNP2Rh

> <NMREDATA_SMILES>
Cc1cccc(c1N#C[Rh](P(c1ccccc1)(c1ccccc1)c1ccccc1)(P(c1ccccc1)(c1ccccc1)c1ccccc1)Cl)C

> <NMREDATA_ASSIGNMENT>
Rh37, -250.00, 37

> <NMREDATA_1D_103Rh>
-250.00, L=Rh37

$$$$
LaurenceCarlton-2008_00129.mol
  ChemDraw08202410332D

M  V30 COUNTS 50 56 0 0 0
  5.415902  0.243529  0.000000 C    0  0  0  0  0  0  0
  5.415902 -0.581457  0.000000 C    0  0  0  0  0  0  0
  4.701391  0.656021  0.000000 C    0  0  0  0  0  0  0
  4.701391 -0.993949  0.000000 C    0  0  0  0  0  0  0
  3.986941  0.243529  0.000000 C    0  0  0  0  0  0  0
  3.986941 -0.581457  0.000000 C    0  0  0  0  0  0  0
  4.938775  2.678723  0.000000 C    0  0  0  0  0  0  0
  4.938775  1.853738  0.000000 C    0  0  0  0  0  0  0
  4.224264  3.091215  0.000000 C    0  0  0  0  0  0  0
  4.224264  1.441245  0.000000 C    0  0  0  0  0  0  0
  3.509877  2.678723  0.000000 C    0  0  0  0  0  0  0
  3.509877  1.853738  0.000000 C    0  0  0  0  0  0  0
  3.229196  3.603078  0.000000 C    0  0  0  0  0  0  0
  3.229196  2.778093  0.000000 C    0  0  0  0  0  0  0
  2.514684  4.015570  0.000000 C    0  0  0  0  0  0  0
  2.514684  2.365600  0.000000 C    0  0  0  0  0  0  0
  1.800235  3.603078  0.000000 C    0  0  0  0  0  0  0
  1.800235  2.778093  0.000000 C    0  0  0  0  0  0  0
 -0.150265 -2.469990  0.000000 C    0  0  0  0  0  0  0
 -0.150265 -3.294975  0.000000 C    0  0  0  0  0  0  0
 -0.864777 -2.057497  0.000000 C    0  0  0  0  0  0  0
 -0.864777 -3.707467  0.000000 C    0  0  0  0  0  0  0
 -1.579226 -2.469990  0.000000 C    0  0  0  0  0  0  0
 -1.579226 -3.294975  0.000000 C    0  0  0  0  0  0  0
 -2.595384 -2.718478  0.000000 C    0  0  0  0  0  0  0
 -2.595384 -3.543463  0.000000 C    0  0  0  0  0  0  0
 -3.309896 -2.305985  0.000000 C    0  0  0  0  0  0  0
 -3.309896 -3.955955  0.000000 C    0  0  0  0  0  0  0
 -4.024345 -2.718478  0.000000 C    0  0  0  0  0  0  0
 -4.024345 -3.543463  0.000000 C    0  0  0  0  0  0  0
 -3.986941 -1.237475  0.000000 C    0  0  0  0  0  0  0
 -3.986941 -2.062459  0.000000 C    0  0  0  0  0  0  0
 -4.701453 -0.824982  0.000000 C    0  0  0  0  0  0  0
 -4.701453 -2.474952  0.000000 C    0  0  0  0  0  0  0
 -5.415902 -1.237475  0.000000 C    0  0  0  0  0  0  0
 -5.415902 -2.062459  0.000000 C    0  0  0  0  0  0  0
 -0.258443 -0.188875  0.000000 Rh   0  0  0  0  0  0  0
  1.650001  1.013804  0.000000 P    0  0  0  0  0  0  0
 -2.037620 -1.371705  0.000000 P    0  0  0  0  0  0  0
 -1.689700  0.993955  0.000000 Cl   0  0  0  0  0  0  0
  2.722910 -3.934625  0.000000 C    0  0  0  0  0  0  0
  1.901890 -4.015570  0.000000 C    0  0  0  0  0  0  0
  3.063305 -3.183123  0.000000 C    0  0  0  0  0  0  0
  1.421326 -3.344950  0.000000 C    0  0  0  0  0  0  0
  2.582744 -2.512566  0.000000 C    0  0  0  0  0  0  0
  1.761724 -2.593511  0.000000 C    0  0  0  0  0  0  0
  1.281162 -1.922953  0.000000 N    0  0  0  0  0  0  0
  0.835307 -1.228808  0.000000 C    0  0  0  0  0  0  0
  2.484220 -1.395300  0.000000 C    0  0  0  0  0  0  0
  0.597251 -3.384000  0.000000 C    0  0  0  0  0  0  0
  1  2  1  0  0  0  0
  1  3  2  0  0  0  0
  2  4  2  0  0  0  0
  3  5  1  0  0  0  0
  4  6  1  0  0  0  0
  5  6  2  0  0  0  0
  7  8  1  0  0  0  0
  7  9  2  0  0  0  0
  8 10  2  0  0  0  0
  9 11  1  0  0  0  0
 10 12  1  0  0  0  0
 11 12  2  0  0  0  0
 13 14  1  0  0  0  0
 13 15  2  0  0  0  0
 14 16  2  0  0  0  0
 15 17  1  0  0  0  0
 16 18  1  0  0  0  0
 17 18  2  0  0  0  0
 19 20  1  0  0  0  0
 19 21  2  0  0  0  0
 20 22  2  0  0  0  0
 21 23  1  0  0  0  0
 22 24  1  0  0  0  0
 23 24  2  0  0  0  0
 25 26  1  0  0  0  0
 25 27  2  0  0  0  0
 26 28  2  0  0  0  0
 27 29  1  0  0  0  0
 28 30  1  0  0  0  0
 29 30  2  0  0  0  0
 31 32  1  0  0  0  0
 31 33  2  0  0  0  0
 32 34  2  0  0  0  0
 33 35  1  0  0  0  0
 34 36  1  0  0  0  0
 35 36  2  0  0  0  0
 37 38  1  0  0  0  0
 37 39  1  0  0  0  0
 31 39  1  0  0  0  0
 27 39  1  0  0  0  0
 23 39  1  0  0  0  0
 16 38  1  0  0  0  0
 12 38  1  0  0  0  0
  5 38  1  0  0  0  0
 37 40  1  0  0  0  0
 41 42  1  0  0  0  0
 41 43  2  0  0  0  0
 42 44  2  0  0  0  0
 43 45  1  0  0  0  0
 44 46  1  0  0  0  0
 45 46  2  0  0  0  0
 46 47  1  0  0  0  0
 47 48  3  0  0  0  0
 45 49  1  0  0  0  0
 44 50  1  0  0  0  0
 48 37  1  0  0  0  0
M  END
> <NMREDATA_VERSION>
1.1

> <NMREDATA_LEVEL>
0

> <NMREDATA_SOLVENT>
DCCl3

> <NMREDATA_TEMPERATURE>
247

> <NMREDATA_FORMULA>
C45H42ClNP2Rh

> <NMREDATA_SMILES>
Cc1cccc(c1N#C[Rh](P(c1ccccc1)(c1ccccc1)c1ccccc1)(P(c1ccccc1)(c1ccccc1)c1ccccc1)Cl)C

> <NMREDATA_ASSIGNMENT>
Rh37, -279.00, 37

> <NMREDATA_1D_103Rh>
-279.00, L=Rh37

$$$$
LaurenceCarlton-2008_00130.mol
  ChemDraw08202410342D

M  V30 COUNTS 50 56 0 0 0
  5.415902  0.243529  0.000000 C    0  0  0  0  0  0  0
  5.415902 -0.581457  0.000000 C    0  0  0  0  0  0  0
  4.701391  0.656021  0.000000 C    0  0  0  0  0  0  0
  4.701391 -0.993949  0.000000 C    0  0  0  0  0  0  0
  3.986941  0.243529  0.000000 C    0  0  0  0  0  0  0
  3.986941 -0.581457  0.000000 C    0  0  0  0  0  0  0
  4.938775  2.678723  0.000000 C    0  0  0  0  0  0  0
  4.938775  1.853738  0.000000 C    0  0  0  0  0  0  0
  4.224264  3.091215  0.000000 C    0  0  0  0  0  0  0
  4.224264  1.441245  0.000000 C    0  0  0  0  0  0  0
  3.509877  2.678723  0.000000 C    0  0  0  0  0  0  0
  3.509877  1.853738  0.000000 C    0  0  0  0  0  0  0
  3.229196  3.603078  0.000000 C    0  0  0  0  0  0  0
  3.229196  2.778093  0.000000 C    0  0  0  0  0  0  0
  2.514684  4.015570  0.000000 C    0  0  0  0  0  0  0
  2.514684  2.365600  0.000000 C    0  0  0  0  0  0  0
  1.800235  3.603078  0.000000 C    0  0  0  0  0  0  0
  1.800235  2.778093  0.000000 C    0  0  0  0  0  0  0
 -0.150265 -2.469990  0.000000 C    0  0  0  0  0  0  0
 -0.150265 -3.294975  0.000000 C    0  0  0  0  0  0  0
 -0.864777 -2.057497  0.000000 C    0  0  0  0  0  0  0
 -0.864777 -3.707467  0.000000 C    0  0  0  0  0  0  0
 -1.579226 -2.469990  0.000000 C    0  0  0  0  0  0  0
 -1.579226 -3.294975  0.000000 C    0  0  0  0  0  0  0
 -2.595384 -2.718478  0.000000 C    0  0  0  0  0  0  0
 -2.595384 -3.543463  0.000000 C    0  0  0  0  0  0  0
 -3.309896 -2.305985  0.000000 C    0  0  0  0  0  0  0
 -3.309896 -3.955955  0.000000 C    0  0  0  0  0  0  0
 -4.024345 -2.718478  0.000000 C    0  0  0  0  0  0  0
 -4.024345 -3.543463  0.000000 C    0  0  0  0  0  0  0
 -3.986941 -1.237475  0.000000 C    0  0  0  0  0  0  0
 -3.986941 -2.062459  0.000000 C    0  0  0  0  0  0  0
 -4.701453 -0.824982  0.000000 C    0  0  0  0  0  0  0
 -4.701453 -2.474952  0.000000 C    0  0  0  0  0  0  0
 -5.415902 -1.237475  0.000000 C    0  0  0  0  0  0  0
 -5.415902 -2.062459  0.000000 C    0  0  0  0  0  0  0
 -0.258443 -0.188875  0.000000 Rh   0  0  0  0  0  0  0
  1.650001  1.013804  0.000000 P    0  0  0  0  0  0  0
 -2.037620 -1.371705  0.000000 P    0  0  0  0  0  0  0
 -1.689700  0.993955  0.000000 Cl   0  0  0  0  0  0  0
  2.722910 -3.934625  0.000000 C    0  0  0  0  0  0  0
  1.901890 -4.015570  0.000000 C    0  0  0  0  0  0  0
  3.063305 -3.183123  0.000000 C    0  0  0  0  0  0  0
  1.421326 -3.344950  0.000000 C    0  0  0  0  0  0  0
  2.582744 -2.512566  0.000000 C    0  0  0  0  0  0  0
  1.761724 -2.593511  0.000000 C    0  0  0  0  0  0  0
  1.281162 -1.922953  0.000000 N    0  0  0  0  0  0  0
  0.835307 -1.228808  0.000000 C    0  0  0  0  0  0  0
  2.484220 -1.395300  0.000000 C    0  0  0  0  0  0  0
  0.597251 -3.384000  0.000000 C    0  0  0  0  0  0  0
  1  2  1  0  0  0  0
  1  3  2  0  0  0  0
  2  4  2  0  0  0  0
  3  5  1  0  0  0  0
  4  6  1  0  0  0  0
  5  6  2  0  0  0  0
  7  8  1  0  0  0  0
  7  9  2  0  0  0  0
  8 10  2  0  0  0  0
  9 11  1  0  0  0  0
 10 12  1  0  0  0  0
 11 12  2  0  0  0  0
 13 14  1  0  0  0  0
 13 15  2  0  0  0  0
 14 16  2  0  0  0  0
 15 17  1  0  0  0  0
 16 18  1  0  0  0  0
 17 18  2  0  0  0  0
 19 20  1  0  0  0  0
 19 21  2  0  0  0  0
 20 22  2  0  0  0  0
 21 23  1  0  0  0  0
 22 24  1  0  0  0  0
 23 24  2  0  0  0  0
 25 26  1  0  0  0  0
 25 27  2  0  0  0  0
 26 28  2  0  0  0  0
 27 29  1  0  0  0  0
 28 30  1  0  0  0  0
 29 30  2  0  0  0  0
 31 32  1  0  0  0  0
 31 33  2  0  0  0  0
 32 34  2  0  0  0  0
 33 35  1  0  0  0  0
 34 36  1  0  0  0  0
 35 36  2  0  0  0  0
 37 38  1  0  0  0  0
 37 39  1  0  0  0  0
 31 39  1  0  0  0  0
 27 39  1  0  0  0  0
 23 39  1  0  0  0  0
 16 38  1  0  0  0  0
 12 38  1  0  0  0  0
  5 38  1  0  0  0  0
 37 40  1  0  0  0  0
 41 42  1  0  0  0  0
 41 43  2  0  0  0  0
 42 44  2  0  0  0  0
 43 45  1  0  0  0  0
 44 46  1  0  0  0  0
 45 46  2  0  0  0  0
 46 47  1  0  0  0  0
 47 48  3  0  0  0  0
 45 49  1  0  0  0  0
 44 50  1  0  0  0  0
 48 37  1  0  0  0  0
M  END
> <NMREDATA_VERSION>
1.1

> <NMREDATA_LEVEL>
0

> <NMREDATA_SOLVENT>
CD2Cl2

> <NMREDATA_TEMPERATURE>
300

> <NMREDATA_FORMULA>
C45H42ClNP2Rh

> <NMREDATA_SMILES>
Cc1cccc(c1N#C[Rh](P(c1ccccc1)(c1ccccc1)c1ccccc1)(P(c1ccccc1)(c1ccccc1)c1ccccc1)Cl)C

> <NMREDATA_ASSIGNMENT>
Rh37, -261.00, 37

> <NMREDATA_1D_103Rh>
-261.00, L=Rh37

$$$$
LaurenceCarlton-2008_00131.mol
  ChemDraw08202410342D

M  V30 COUNTS 50 56 0 0 0
  5.415902  0.243529  0.000000 C    0  0  0  0  0  0  0
  5.415902 -0.581457  0.000000 C    0  0  0  0  0  0  0
  4.701391  0.656021  0.000000 C    0  0  0  0  0  0  0
  4.701391 -0.993949  0.000000 C    0  0  0  0  0  0  0
  3.986941  0.243529  0.000000 C    0  0  0  0  0  0  0
  3.986941 -0.581457  0.000000 C    0  0  0  0  0  0  0
  4.938775  2.678723  0.000000 C    0  0  0  0  0  0  0
  4.938775  1.853738  0.000000 C    0  0  0  0  0  0  0
  4.224264  3.091215  0.000000 C    0  0  0  0  0  0  0
  4.224264  1.441245  0.000000 C    0  0  0  0  0  0  0
  3.509877  2.678723  0.000000 C    0  0  0  0  0  0  0
  3.509877  1.853738  0.000000 C    0  0  0  0  0  0  0
  3.229196  3.603078  0.000000 C    0  0  0  0  0  0  0
  3.229196  2.778093  0.000000 C    0  0  0  0  0  0  0
  2.514684  4.015570  0.000000 C    0  0  0  0  0  0  0
  2.514684  2.365600  0.000000 C    0  0  0  0  0  0  0
  1.800235  3.603078  0.000000 C    0  0  0  0  0  0  0
  1.800235  2.778093  0.000000 C    0  0  0  0  0  0  0
 -0.150265 -2.469990  0.000000 C    0  0  0  0  0  0  0
 -0.150265 -3.294975  0.000000 C    0  0  0  0  0  0  0
 -0.864777 -2.057497  0.000000 C    0  0  0  0  0  0  0
 -0.864777 -3.707467  0.000000 C    0  0  0  0  0  0  0
 -1.579226 -2.469990  0.000000 C    0  0  0  0  0  0  0
 -1.579226 -3.294975  0.000000 C    0  0  0  0  0  0  0
 -2.595384 -2.718478  0.000000 C    0  0  0  0  0  0  0
 -2.595384 -3.543463  0.000000 C    0  0  0  0  0  0  0
 -3.309896 -2.305985  0.000000 C    0  0  0  0  0  0  0
 -3.309896 -3.955955  0.000000 C    0  0  0  0  0  0  0
 -4.024345 -2.718478  0.000000 C    0  0  0  0  0  0  0
 -4.024345 -3.543463  0.000000 C    0  0  0  0  0  0  0
 -3.986941 -1.237475  0.000000 C    0  0  0  0  0  0  0
 -3.986941 -2.062459  0.000000 C    0  0  0  0  0  0  0
 -4.701453 -0.824982  0.000000 C    0  0  0  0  0  0  0
 -4.701453 -2.474952  0.000000 C    0  0  0  0  0  0  0
 -5.415902 -1.237475  0.000000 C    0  0  0  0  0  0  0
 -5.415902 -2.062459  0.000000 C    0  0  0  0  0  0  0
 -0.258443 -0.188875  0.000000 Rh   0  0  0  0  0  0  0
  1.650001  1.013804  0.000000 P    0  0  0  0  0  0  0
 -2.037620 -1.371705  0.000000 P    0  0  0  0  0  0  0
 -1.689700  0.993955  0.000000 Br   0  0  0  0  0  0  0
  2.722910 -3.934625  0.000000 C    0  0  0  0  0  0  0
  1.901890 -4.015570  0.000000 C    0  0  0  0  0  0  0
  3.063305 -3.183123  0.000000 C    0  0  0  0  0  0  0
  1.421326 -3.344950  0.000000 C    0  0  0  0  0  0  0
  2.582744 -2.512566  0.000000 C    0  0  0  0  0  0  0
  1.761724 -2.593511  0.000000 C    0  0  0  0  0  0  0
  1.281162 -1.922953  0.000000 N    0  0  0  0  0  0  0
  0.835307 -1.228808  0.000000 C    0  0  0  0  0  0  0
  2.484220 -1.395300  0.000000 C    0  0  0  0  0  0  0
  0.597251 -3.384000  0.000000 C    0  0  0  0  0  0  0
  1  2  1  0  0  0  0
  1  3  2  0  0  0  0
  2  4  2  0  0  0  0
  3  5  1  0  0  0  0
  4  6  1  0  0  0  0
  5  6  2  0  0  0  0
  7  8  1  0  0  0  0
  7  9  2  0  0  0  0
  8 10  2  0  0  0  0
  9 11  1  0  0  0  0
 10 12  1  0  0  0  0
 11 12  2  0  0  0  0
 13 14  1  0  0  0  0
 13 15  2  0  0  0  0
 14 16  2  0  0  0  0
 15 17  1  0  0  0  0
 16 18  1  0  0  0  0
 17 18  2  0  0  0  0
 19 20  1  0  0  0  0
 19 21  2  0  0  0  0
 20 22  2  0  0  0  0
 21 23  1  0  0  0  0
 22 24  1  0  0  0  0
 23 24  2  0  0  0  0
 25 26  1  0  0  0  0
 25 27  2  0  0  0  0
 26 28  2  0  0  0  0
 27 29  1  0  0  0  0
 28 30  1  0  0  0  0
 29 30  2  0  0  0  0
 31 32  1  0  0  0  0
 31 33  2  0  0  0  0
 32 34  2  0  0  0  0
 33 35  1  0  0  0  0
 34 36  1  0  0  0  0
 35 36  2  0  0  0  0
 37 38  1  0  0  0  0
 37 39  1  0  0  0  0
 31 39  1  0  0  0  0
 27 39  1  0  0  0  0
 23 39  1  0  0  0  0
 16 38  1  0  0  0  0
 12 38  1  0  0  0  0
  5 38  1  0  0  0  0
 37 40  1  0  0  0  0
 41 42  1  0  0  0  0
 41 43  2  0  0  0  0
 42 44  2  0  0  0  0
 43 45  1  0  0  0  0
 44 46  1  0  0  0  0
 45 46  2  0  0  0  0
 46 47  1  0  0  0  0
 47 48  3  0  0  0  0
 45 49  1  0  0  0  0
 44 50  1  0  0  0  0
 48 37  1  0  0  0  0
M  END
> <NMREDATA_VERSION>
1.1

> <NMREDATA_LEVEL>
0

> <NMREDATA_SOLVENT>
toluene-d8

> <NMREDATA_TEMPERATURE>
300

> <NMREDATA_FORMULA>
C45H42BrNP2Rh

> <NMREDATA_SMILES>
Cc1cccc(c1N#C[Rh](P(c1ccccc1)(c1ccccc1)c1ccccc1)(P(c1ccccc1)(c1ccccc1)c1ccccc1)Br)C

> <NMREDATA_ASSIGNMENT>
Rh37, -335.00, 37

> <NMREDATA_1D_103Rh>
-335.00, L=Rh37

$$$$
LaurenceCarlton-2008_00132.mol
  ChemDraw08202410352D

M  V30 COUNTS 61 68 0 0 0
  5.415902  0.243529  0.000000 C    0  0  0  0  0  0  0
  5.415902 -0.581457  0.000000 C    0  0  0  0  0  0  0
  4.701391  0.656021  0.000000 C    0  0  0  0  0  0  0
  4.701391 -0.993949  0.000000 C    0  0  0  0  0  0  0
  3.986941  0.243529  0.000000 C    0  0  0  0  0  0  0
  3.986941 -0.581457  0.000000 C    0  0  0  0  0  0  0
  4.938775  2.678723  0.000000 C    0  0  0  0  0  0  0
  4.938775  1.853738  0.000000 C    0  0  0  0  0  0  0
  4.224264  3.091215  0.000000 C    0  0  0  0  0  0  0
  4.224264  1.441245  0.000000 C    0  0  0  0  0  0  0
  3.509877  2.678723  0.000000 C    0  0  0  0  0  0  0
  3.509877  1.853738  0.000000 C    0  0  0  0  0  0  0
  3.229196  3.603078  0.000000 C    0  0  0  0  0  0  0
  3.229196  2.778093  0.000000 C    0  0  0  0  0  0  0
  2.514684  4.015570  0.000000 C    0  0  0  0  0  0  0
  2.514684  2.365600  0.000000 C    0  0  0  0  0  0  0
  1.800235  3.603078  0.000000 C    0  0  0  0  0  0  0
  1.800235  2.778093  0.000000 C    0  0  0  0  0  0  0
 -0.150265 -2.469990  0.000000 C    0  0  0  0  0  0  0
 -0.150265 -3.294975  0.000000 C    0  0  0  0  0  0  0
 -0.864777 -2.057497  0.000000 C    0  0  0  0  0  0  0
 -0.864777 -3.707467  0.000000 C    0  0  0  0  0  0  0
 -1.579226 -2.469990  0.000000 C    0  0  0  0  0  0  0
 -1.579226 -3.294975  0.000000 C    0  0  0  0  0  0  0
 -2.595384 -2.718478  0.000000 C    0  0  0  0  0  0  0
 -2.595384 -3.543463  0.000000 C    0  0  0  0  0  0  0
 -3.309896 -2.305985  0.000000 C    0  0  0  0  0  0  0
 -3.309896 -3.955955  0.000000 C    0  0  0  0  0  0  0
 -4.024345 -2.718478  0.000000 C    0  0  0  0  0  0  0
 -4.024345 -3.543463  0.000000 C    0  0  0  0  0  0  0
 -3.986941 -1.237475  0.000000 C    0  0  0  0  0  0  0
 -3.986941 -2.062459  0.000000 C    0  0  0  0  0  0  0
 -4.701453 -0.824982  0.000000 C    0  0  0  0  0  0  0
 -4.701453 -2.474952  0.000000 C    0  0  0  0  0  0  0
 -5.415902 -1.237475  0.000000 C    0  0  0  0  0  0  0
 -5.415902 -2.062459  0.000000 C    0  0  0  0  0  0  0
 -0.258443 -0.188875  0.000000 Rh   0  0  0  0  0  0  0
  1.650001  1.013804  0.000000 P    0  0  0  0  0  0  0
 -2.037620 -1.371705  0.000000 P    0  0  0  0  0  0  0
 -1.689700  0.993955  0.000000 S    0  0  0  0  0  0  0
  2.722910 -3.934625  0.000000 C    0  0  0  0  0  0  0
  1.901890 -4.015570  0.000000 C    0  0  0  0  0  0  0
  3.063305 -3.183123  0.000000 C    0  0  0  0  0  0  0
  1.421326 -3.344950  0.000000 C    0  0  0  0  0  0  0
  2.582744 -2.512566  0.000000 C    0  0  0  0  0  0  0
  1.761724 -2.593511  0.000000 C    0  0  0  0  0  0  0
  1.281162 -1.922953  0.000000 N    0  0  0  0  0  0  0
  0.835307 -1.228808  0.000000 C    0  0  0  0  0  0  0
  2.484220 -1.395300  0.000000 C    0  0  0  0  0  0  0
  0.597251 -3.384000  0.000000 C    0  0  0  0  0  0  0
 -2.273062  1.577318  0.000000 C    0  0  0  0  0  0  0
 -2.059537  2.374207  0.000000 C    0  0  0  0  0  0  0
 -2.642900  2.957569  0.000000 C    0  0  0  0  0  0  0
 -3.439789  2.744044  0.000000 C    0  0  0  0  0  0  0
 -3.653314  1.947156  0.000000 C    0  0  0  0  0  0  0
 -3.069952  1.363792  0.000000 C    0  0  0  0  0  0  0
 -1.262648  2.587732  0.000000 F    0  0  0  0  0  0  0
 -2.429374  3.754459  0.000000 F    0  0  0  0  0  0  0
 -4.023152  3.327408  0.000000 F    0  0  0  0  0  0  0
 -4.450204  1.733629  0.000000 F    0  0  0  0  0  0  0
 -3.283477  0.566904  0.000000 F    0  0  0  0  0  0  0
  1  2  1  0  0  0  0
  1  3  2  0  0  0  0
  2  4  2  0  0  0  0
  3  5  1  0  0  0  0
  4  6  1  0  0  0  0
  5  6  2  0  0  0  0
  7  8  1  0  0  0  0
  7  9  2  0  0  0  0
  8 10  2  0  0  0  0
  9 11  1  0  0  0  0
 10 12  1  0  0  0  0
 11 12  2  0  0  0  0
 13 14  1  0  0  0  0
 13 15  2  0  0  0  0
 14 16  2  0  0  0  0
 15 17  1  0  0  0  0
 16 18  1  0  0  0  0
 17 18  2  0  0  0  0
 19 20  1  0  0  0  0
 19 21  2  0  0  0  0
 20 22  2  0  0  0  0
 21 23  1  0  0  0  0
 22 24  1  0  0  0  0
 23 24  2  0  0  0  0
 25 26  1  0  0  0  0
 25 27  2  0  0  0  0
 26 28  2  0  0  0  0
 27 29  1  0  0  0  0
 28 30  1  0  0  0  0
 29 30  2  0  0  0  0
 31 32  1  0  0  0  0
 31 33  2  0  0  0  0
 32 34  2  0  0  0  0
 33 35  1  0  0  0  0
 34 36  1  0  0  0  0
 35 36  2  0  0  0  0
 37 38  1  0  0  0  0
 37 39  1  0  0  0  0
 31 39  1  0  0  0  0
 27 39  1  0  0  0  0
 23 39  1  0  0  0  0
 16 38  1  0  0  0  0
 12 38  1  0  0  0  0
  5 38  1  0  0  0  0
 37 40  1  0  0  0  0
 41 42  1  0  0  0  0
 41 43  2  0  0  0  0
 42 44  2  0  0  0  0
 43 45  1  0  0  0  0
 44 46  1  0  0  0  0
 45 46  2  0  0  0  0
 46 47  1  0  0  0  0
 47 48  3  0  0  0  0
 45 49  1  0  0  0  0
 44 50  1  0  0  0  0
 48 37  1  0  0  0  0
 40 51  1  0  0  0  0
 51 52  2  0  0  0  0
 52 53  1  0  0  0  0
 53 54  2  0  0  0  0
 54 55  1  0  0  0  0
 55 56  2  0  0  0  0
 56 51  1  0  0  0  0
 52 57  1  0  0  0  0
 53 58  1  0  0  0  0
 54 59  1  0  0  0  0
 55 60  1  0  0  0  0
 56 61  1  0  0  0  0
M  END
> <NMREDATA_VERSION>
1.1

> <NMREDATA_LEVEL>
0

> <NMREDATA_SOLVENT>
toluene-d8

> <NMREDATA_TEMPERATURE>
300

> <NMREDATA_FORMULA>
C51H42F5NP2RhS

> <NMREDATA_SMILES>
Cc1cccc(c1N#C[Rh](P(c1ccccc1)(c1ccccc1)c1ccccc1)(P(c1ccccc1)(c1ccccc1)c1ccccc1)Sc1c(F)c(F)c(c(c1F)F)F)C

> <NMREDATA_ASSIGNMENT>
Rh37, -366.00, 37

> <NMREDATA_1D_103Rh>
-366.00, L=Rh37

$$$$
LaurenceCarlton-2008_00133.mol
  ChemDraw08202410492D

M  V30 COUNTS 14 22 0 0 0
  0.214686 -0.538507  0.000000 Rh   0  0  0  0  0  0  0
 -1.079767 -0.130088  0.000000 C    0  0  0  0  0  0  0
 -1.901781 -0.200305  0.000000 C    0  0  0  0  0  0  0
 -0.548177  0.500812  0.000000 C    0  0  0  0  0  0  0
 -0.618455  1.322763  0.000000 C    0  0  0  0  0  0  0
 -2.532619  0.331224  0.000000 C    0  0  0  0  0  0  0
 -1.249294  1.854293  0.000000 C    0  0  0  0  0  0  0
 -2.602836  1.153237  0.000000 C    0  0  0  0  0  0  0
 -2.071245  1.784137  0.000000 C    0  0  0  0  0  0  0
  1.333157 -1.186856  0.000000 C    0  0  0  0  0  0  0
  1.818103 -0.519421  0.000000 C    0  0  0  0  0  0  0
  1.818103 -1.854293  0.000000 C    0  0  0  0  0  0  0
  2.602712 -0.774361  0.000000 C    0  0  0  0  0  0  0
  2.602836 -1.599290  0.000000 C    0  0  0  0  0  0  0
  2  3  1  0  0  0  0
  2  4  1  0  0  0  0
  3  6  1  0  0  0  0
  4  5  1  0  0  0  0
  5  7  1  0  0  0  0
  6  8  2  0  0  0  0
  7  9  2  0  0  0  0
  8  9  1  0  0  0  0
  1  2  1  0  0  0  0
 10 11  1  0  0  0  0
 10 12  1  0  0  0  0
 11 13  1  0  0  0  0
 12 14  1  0  0  0  0
 13 14  1  0  0  0  0
  3  1  1  0  0  0  0
  4  1  1  0  0  0  0
  5  1  1  0  0  0  0
  1 10  1  0  0  0  0
 11  1  1  0  0  0  0
 13  1  1  0  0  0  0
 14  1  1  0  0  0  0
 12  1  1  0  0  0  0
M  END
> <NMREDATA_VERSION>
1.1

> <NMREDATA_LEVEL>
0

> <NMREDATA_SOLVENT>
acetone

> <NMREDATA_TEMPERATURE>
300

> <NMREDATA_FORMULA>
C13H13Rh

> <NMREDATA_SMILES>
C1=CC2C3[Rh]456782(C(C=C1)C34)C1C7C6C5C81

> <NMREDATA_ASSIGNMENT>
Rh1, -348.00, 1

> <NMREDATA_1D_103Rh>
-348.00, L=Rh1

$$$$
LaurenceCarlton-2008_00136.mol
  ChemDraw08202411322D

M  V30 COUNTS 20 36 0 0 0
  2.445523 -0.692613  0.000000 C    0  0  0  0  0  0  0
  2.764301 -0.461421  0.000000 C    0  0  0  0  0  0  0
  2.566893 -1.067264  0.000000 C    0  0  0  0  0  0  0
  3.082693 -0.693176  0.000000 C    0  0  0  0  0  0  0
  2.960731 -1.067590  0.000000 C    0  0  0  0  0  0  0
 -1.658559 -0.132221  0.000000 Rh   0  0  0  0  0  0  0
  1.838911 -0.133465  0.000000 Co   0  0  0  0  0  0  0
  0.345049 -0.511919  0.000000 C    0  0  0  0  0  0  0
 -0.047338 -0.545437  0.000000 C    0  0  0  0  0  0  0
  0.598803 -0.210760  0.000000 C    0  0  0  0  0  0  0
  0.565256  0.181598  0.000000 C    0  0  0  0  0  0  0
 -0.348468 -0.291712  0.000000 C    0  0  0  0  0  0  0
  0.264126  0.435322  0.000000 C    0  0  0  0  0  0  0
 -0.381986  0.100675  0.000000 C    0  0  0  0  0  0  0
 -0.128231  0.401834  0.000000 C    0  0  0  0  0  0  0
 -3.082693  0.836399  0.000000 C    0  0  0  0  0  0  0
 -2.763887  1.067590  0.000000 C    0  0  0  0  0  0  0
 -2.961323  0.461748  0.000000 C    0  0  0  0  0  0  0
 -2.445494  0.835836  0.000000 C    0  0  0  0  0  0  0
 -2.567456  0.461422  0.000000 C    0  0  0  0  0  0  0
  1  2  1  0  0  0  0
  1  3  1  0  0  0  0
  2  4  1  0  0  0  0
  3  5  1  0  0  0  0
  4  5  1  0  0  0  0
  8  9  1  0  0  0  0
  8 10  1  0  0  0  0
  9 12  1  0  0  0  0
 10 11  1  0  0  0  0
 11 13  1  0  0  0  0
 12 14  1  0  0  0  0
 13 15  1  0  0  0  0
 14 15  1  0  0  0  0
 16 17  1  0  0  0  0
 16 18  1  0  0  0  0
 17 19  1  0  0  0  0
 18 20  1  0  0  0  0
 19 20  1  0  0  0  0
 14  6  1  0  0  0  0
 12  6  1  0  0  0  0
 13  7  1  0  0  0  0
  7  8  1  0  0  0  0
  6 19  1  0  0  0  0
 17  6  1  0  0  0  0
  6 20  1  0  0  0  0
  6 18  1  0  0  0  0
 16  6  1  0  0  0  0
  7  1  1  0  0  0  0
  7  2  1  0  0  0  0
  4  7  1  0  0  0  0
  7  3  1  0  0  0  0
  5  7  1  0  0  0  0
  7 15  1  0  0  0  0
  7  9  1  0  0  0  0
 10  6  1  0  0  0  0
 11  6  1  0  0  0  0
M  END
> <NMREDATA_VERSION>
1.1

> <NMREDATA_LEVEL>
0

> <NMREDATA_SOLVENT>
CD2Cl2

> <NMREDATA_TEMPERATURE>
300

> <NMREDATA_FORMULA>
C18H18CoRh

> <NMREDATA_SMILES>
C12C3[Co]456782(C1C5C34)C1C8C2C3C6C7C4C1[Rh]1567234C2C6C5C1C72

> <NMREDATA_ASSIGNMENT>
Rh6, -256.00, 6

> <NMREDATA_1D_103Rh>
-256.00, L=Rh6

$$$$
LaurenceCarlton-2008_00142.mol
  ChemDraw08202411402D

M  V30 COUNTS 27 42 0 0 1
  2.270067  0.001560  0.000000 C    0  0  0  0  0  0  0
  2.588845  0.232752  0.000000 C    0  0  0  0  0  0  0
  2.391437 -0.373091  0.000000 C    0  0  0  0  0  0  0
  2.907237  0.000997  0.000000 C    0  0  0  0  0  0  0
  2.785275 -0.373417  0.000000 C    0  0  0  0  0  0  0
 -0.970372  0.636349  0.000000 Rh   0  3  0  0  0  0  0
  0.855800  0.822547  0.000000 Ru   0  0  0  0  0  0  0
  0.262692  1.790890  0.000000 C    0  0  0  0  0  0  0
 -0.129694  1.757372  0.000000 C    0  0  0  0  0  0  0
  0.516447  2.092050  0.000000 C    0  0  0  0  0  0  0
  0.482899  2.484407  0.000000 C    0  0  0  0  0  0  0
 -0.430825  2.011097  0.000000 C    0  0  0  0  0  0  0
  0.181769  2.738131  0.000000 C    0  0  0  0  0  0  0
 -0.464342  2.403484  0.000000 C    0  0  0  0  0  0  0
 -0.210588  2.704643  0.000000 C    0  0  0  0  0  0  0
 -2.907237  0.038295  0.000000 C    0  0  0  0  0  0  0
 -2.588431  0.269487  0.000000 C    0  0  0  0  0  0  0
 -2.785867 -0.336355  0.000000 C    0  0  0  0  0  0  0
 -2.270039  0.037732  0.000000 C    0  0  0  0  0  0  0
 -2.392000 -0.336681  0.000000 C    0  0  0  0  0  0  0
 -1.435867 -1.913131  0.000000 P    0  5  0  0  0  0  0
 -0.721397 -1.500631  0.000000 F    0  0  0  0  0  0  0
 -2.150338 -1.500631  0.000000 F    0  0  0  0  0  0  0
 -1.435867 -2.738131  0.000000 F    0  0  0  0  0  0  0
 -1.435867 -1.088131  0.000000 F    0  0  0  0  0  0  0
 -0.721397 -2.325631  0.000000 F    0  0  0  0  0  0  0
 -2.150338 -2.325631  0.000000 F    0  0  0  0  0  0  0
  1  2  1  0  0  0  0
  1  3  1  0  0  0  0
  2  4  1  0  0  0  0
  3  5  1  0  0  0  0
  4  5  1  0  0  0  0
  8  9  1  0  0  0  0
  8 10  1  0  0  0  0
  9 12  1  0  0  0  0
 10 11  1  0  0  0  0
 11 13  1  0  0  0  0
 12 14  1  0  0  0  0
 13 15  1  0  0  0  0
 14 15  1  0  0  0  0
 16 17  1  0  0  0  0
 16 18  1  0  0  0  0
 17 19  1  0  0  0  0
 18 20  1  0  0  0  0
 19 20  1  0  0  0  0
 14  6  1  0  0  0  0
 12  6  1  0  0  0  0
  6 15  1  0  0  0  0
 13  7  1  0  0  0  0
  7 11  1  0  0  0  0
 10  7  1  0  0  0  0
  7  8  1  0  0  0  0
  6 19  1  0  0  0  0
 17  6  1  0  0  0  0
  6 20  1  0  0  0  0
  6 18  1  0  0  0  0
 16  6  1  0  0  0  0
  7  1  1  0  0  0  0
  7  2  1  0  0  0  0
  4  7  1  0  0  0  0
  7  3  1  0  0  0  0
  5  7  1  0  0  0  0
  6  7  1  0  0  0  0
 21 22  1  0  0  0  0
 21 23  1  0  0  0  0
 21 24  1  0  0  0  0
 21 25  1  0  0  0  0
 21 26  1  0  0  0  0
 21 27  1  0  0  0  0
M  END
> <NMREDATA_VERSION>
1.1

> <NMREDATA_LEVEL>
0

> <NMREDATA_SOLVENT>
acetone

> <NMREDATA_TEMPERATURE>
296

> <NMREDATA_FORMULA>
C18H19F6PRhRu

> <NMREDATA_SMILES>
C1C2C3[Rh]456782([Ru]29%10%11%12%13%14(C1C2C9C%14C34)C1C%12C%11C%10C%131)C1C7C6C5C81.F[P](F)(F)(F)(F)F

> <NMREDATA_ASSIGNMENT>
Rh6, -1209.00, 6

> <NMREDATA_1D_103Rh>
-1209.00, L=Rh6

$$$$
LaurenceCarlton-2008_00143.mol
  ChemDraw08202411412D

M  V30 COUNTS 18 27 0 0 1
  0.549480 -0.418322  0.000000 Rh   0  0  0  0  0  0  0
  1.782545  0.736219  0.000000 C    0  0  0  0  0  0  0
  1.390158  0.702701  0.000000 C    0  0  0  0  0  0  0
  2.036299  1.037379  0.000000 C    0  0  0  0  0  0  0
  2.002752  1.429737  0.000000 C    0  0  0  0  0  0  0
  1.089028  0.956426  0.000000 C    0  0  0  0  0  0  0
  1.701622  1.683461  0.000000 C    0  0  0  0  0  0  0
  1.055510  1.348813  0.000000 C    0  0  0  0  0  0  0
  1.309265  1.649972  0.000000 C    0  0  0  0  0  0  0
 -1.387385 -1.016375  0.000000 C    0  0  0  0  0  0  0
 -1.068578 -0.785184  0.000000 C    0  0  0  0  0  0  0
 -1.266015 -1.391026  0.000000 C    0  0  0  0  0  0  0
 -0.750186 -1.016938  0.000000 C    0  0  0  0  0  0  0
 -0.872147 -1.391352  0.000000 C    0  0  0  0  0  0  0
 -1.772526 -0.934159  0.000000 C    0  0  0  0  0  0  0
 -2.036299 -1.226594  0.000000 C    0  0  0  0  0  0  0
 -1.914929 -1.601244  0.000000 C    0  0  0  0  0  0  0
 -1.529788 -1.683461  0.000000 C    0  0  0  0  0  0  0
  2  3  2  0  0  0  0
  2  4  1  0  0  0  0
  3  6  1  0  0  0  0
  4  5  1  0  0  0  0
  5  7  1  0  0  0  0
  6  8  1  0  0  0  0
  7  9  2  0  0  0  0
  8  9  1  0  0  0  0
 10 11  1  0  0  0  0
 10 12  1  0  0  0  0
 11 13  1  0  0  0  0
 12 14  1  0  0  0  0
 13 14  1  0  0  0  0
  8  1  1  0  0  0  0
  6  1  1  0  0  0  0
  1 13  1  0  0  0  0
 11  1  1  0  0  0  0
  1 14  1  0  0  0  0
  1 12  1  0  0  0  0
 10  1  1  0  0  0  0
  5  1  1  0  0  0  0
  4  1  1  0  0  0  0
 10 15  1  0  0  0  0
 15 16  2  0  0  0  0
 16 17  1  0  0  0  0
 17 18  2  0  0  0  0
 18 12  1  0  0  0  0
M  END
> <NMREDATA_VERSION>
1.1

> <NMREDATA_LEVEL>
0

> <NMREDATA_SOLVENT>
CD2Cl2

> <NMREDATA_TEMPERATURE>
300

> <NMREDATA_FORMULA>
C17H15Rh

> <NMREDATA_SMILES>
C1=CC23C4(C=C1)[Rh]156783(C2C5C41)C1C8C=CC6C7C=C1

> <NMREDATA_ASSIGNMENT>
Rh1, -18.00, 1

> <NMREDATA_1D_103Rh>
-18.00, L=Rh1

$$$$
LaurenceCarlton-2008_00145.mol
  ChemDraw08202411522D

M  V30 COUNTS 29 39 0 0 1
 -0.300856  0.286870  0.000000 Rh   0  3  0  0  0  0  0
  1.525317  0.473068  0.000000 Fe   0  0  0  0  0  0  0
  0.932208  1.441411  0.000000 C    0  0  0  0  0  0  0
  0.539822  1.407893  0.000000 C    0  0  0  0  0  0  0
  1.185963  1.742571  0.000000 C    0  0  0  0  0  0  0
  1.152415  2.134928  0.000000 C    0  0  0  0  0  0  0
  0.238692  1.661618  0.000000 C    0  0  0  0  0  0  0
  0.851285  2.388652  0.000000 C    0  0  0  0  0  0  0
  0.205174  2.054005  0.000000 C    0  0  0  0  0  0  0
  0.458928  2.355164  0.000000 C    0  0  0  0  0  0  0
  2.684611  0.473068  0.000000 C    0  0  0  0  0  0  0
  1.859611 -0.351932  0.000000 C    0  0  0  0  0  0  0
  2.272111  1.187539  0.000000 C    0  0  0  0  0  0  0
  2.684611  1.902010  0.000000 O    0  0  0  0  0  0  0
  3.509611  0.473068  0.000000 O    0  0  0  0  0  0  0
  1.859611 -1.176932  0.000000 O    0  0  0  0  0  0  0
 -3.509611  0.634917  0.000000 C    0  0  0  0  0  0  0
 -3.509611 -0.190083  0.000000 C    0  0  0  0  0  0  0
 -2.926248 -0.773446  0.000000 C    0  0  0  0  0  0  0
 -2.101248 -0.773446  0.000000 C    0  0  0  0  0  0  0
 -1.517885 -0.190083  0.000000 C    0  0  0  0  0  0  0
 -1.517885  0.634917  0.000000 C    0  0  0  0  0  0  0
 -2.101248  1.218280  0.000000 C    0  0  0  0  0  0  0
 -2.926248  1.218280  0.000000 C    0  0  0  0  0  0  0
 -0.594476 -1.976152  0.000000 B    0  5  0  0  0  0  0
 -0.594476 -1.151152  0.000000 F    0  0  0  0  0  0  0
  0.119994 -2.388652  0.000000 F    0  0  0  0  0  0  0
 -1.308947 -2.388652  0.000000 F    0  0  0  0  0  0  0
  0.119994 -1.563652  0.000000 F    0  0  0  0  0  0  0
  3  4  1  0  0  0  0
  3  5  1  0  0  0  0
  4  7  1  0  0  0  0
  5  6  1  0  0  0  0
  6  8  1  0  0  0  0
  7  9  1  0  0  0  0
  8 10  1  0  0  0  0
  9 10  1  0  0  0  0
  9  1  1  0  0  0  0
  7  1  1  0  0  0  0
  1 10  1  0  0  0  0
  1  2  1  0  0  0  0
  4  1  1  0  0  0  0
  8  1  1  0  0  0  0
  6  2  1  0  0  0  0
  5  2  1  0  0  0  0
  3  2  1  0  0  0  0
  2 11  1  0  0  0  0
  2 12  1  0  0  0  0
  2 13  1  0  0  0  0
 13 14  3  0  0  0  0
 11 15  3  0  0  0  0
 12 16  3  0  0  0  0
 17 18  1  0  0  0  0
 18 19  1  0  0  0  0
 19 20  1  0  0  0  0
 20 21  1  0  0  0  0
 21 22  1  0  0  0  0
 22 23  1  0  0  0  0
 23 24  1  0  0  0  0
 24 17  1  0  0  0  0
 17  1  1  0  0  0  0
 18  1  1  0  0  0  0
  1 21  1  0  0  0  0
 22  1  1  0  0  0  0
 25 26  1  0  0  0  0
 25 27  1  0  0  0  0
 25 28  1  0  0  0  0
 25 29  1  0  0  0  0
M  END
> <NMREDATA_VERSION>
1.1

> <NMREDATA_LEVEL>
0

> <NMREDATA_SOLVENT>
propylene carbonate

> <NMREDATA_TEMPERATURE>
300

> <NMREDATA_FORMULA>
C19H20BF4FeO3Rh

> <NMREDATA_SMILES>
F[B](F)(F)F.[O]#C[Fe]123(C#[O])(C#[O])C4C1C1[Rh]56789%103(C(C24)C9C8C1%10)C1C7CCC5C6CC1

> <NMREDATA_ASSIGNMENT>
Rh1, 131.00, 1

> <NMREDATA_1D_103Rh>
131.00, L=Rh1

$$$$
LaurenceCarlton-2008_00146.mol
  ChemDraw08202411542D

M  V30 COUNTS 28 39 0 0 1
 -0.545394  0.286870  0.000000 Rh   0  3  0  0  0  0  0
  1.280779  0.473068  0.000000 Fe   0  0  0  0  0  0  0
  0.687671  1.441411  0.000000 C    0  0  0  0  0  0  0
  0.295284  1.407893  0.000000 C    0  0  0  0  0  0  0
  0.941425  1.742571  0.000000 C    0  0  0  0  0  0  0
  0.907878  2.134928  0.000000 C    0  0  0  0  0  0  0
 -0.005846  1.661618  0.000000 C    0  0  0  0  0  0  0
  0.606748  2.388652  0.000000 C    0  0  0  0  0  0  0
 -0.039364  2.054005  0.000000 C    0  0  0  0  0  0  0
  0.214391  2.355164  0.000000 C    0  0  0  0  0  0  0
  2.440074  0.473068  0.000000 C    0  0  0  0  0  0  0
  1.615074 -0.351932  0.000000 C    0  0  0  0  0  0  0
  2.027574  1.187539  0.000000 C    0  0  0  0  0  0  0
  2.440074  1.902010  0.000000 O    0  0  0  0  0  0  0
  3.265074  0.473068  0.000000 O    0  0  0  0  0  0  0
  1.615074 -1.176932  0.000000 O    0  0  0  0  0  0  0
 -3.265074  0.613432  0.000000 C    0  0  0  0  0  0  0
 -3.265074 -0.211568  0.000000 C    0  0  0  0  0  0  0
 -2.550603 -0.624068  0.000000 C    0  0  0  0  0  0  0
 -1.836132 -0.211568  0.000000 C    0  0  0  0  0  0  0
 -1.836132  0.613432  0.000000 C    0  0  0  0  0  0  0
 -2.550603  1.025932  0.000000 C    0  0  0  0  0  0  0
 -2.764129  0.229044  0.000000 C    0  0  0  0  0  0  0
 -0.839013 -1.976152  0.000000 B    0  5  0  0  0  0  0
 -0.839013 -1.151152  0.000000 F    0  0  0  0  0  0  0
 -0.124543 -2.388652  0.000000 F    0  0  0  0  0  0  0
 -1.553485 -2.388652  0.000000 F    0  0  0  0  0  0  0
 -0.124543 -1.563652  0.000000 F    0  0  0  0  0  0  0
  3  4  1  0  0  0  0
  3  5  1  0  0  0  0
  4  7  1  0  0  0  0
  5  6  1  0  0  0  0
  6  8  1  0  0  0  0
  7  9  1  0  0  0  0
  8 10  1  0  0  0  0
  9 10  1  0  0  0  0
  9  1  1  0  0  0  0
  7  1  1  0  0  0  0
  1 10  1  0  0  0  0
  1  2  1  0  0  0  0
  4  1  1  0  0  0  0
  8  1  1  0  0  0  0
  6  2  1  0  0  0  0
  5  2  1  0  0  0  0
  3  2  1  0  0  0  0
  2 11  1  0  0  0  0
  2 12  1  0  0  0  0
  2 13  1  0  0  0  0
 13 14  3  0  0  0  0
 11 15  3  0  0  0  0
 12 16  3  0  0  0  0
 17 18  1  0  0  0  0
 18 19  1  0  0  0  0
 19 20  1  0  0  0  0
 20 21  1  0  0  0  0
 21 22  1  0  0  0  0
 22 17  1  0  0  0  0
 22 23  1  0  0  0  0
 23 19  1  0  0  0  0
 17  1  1  0  0  0  0
  1 20  1  0  0  0  0
  1 18  1  0  0  0  0
  1 21  1  0  0  0  0
 24 25  1  0  0  0  0
 24 26  1  0  0  0  0
 24 27  1  0  0  0  0
 24 28  1  0  0  0  0
M  END
> <NMREDATA_VERSION>
1.1

> <NMREDATA_LEVEL>
0

> <NMREDATA_SOLVENT>
CD2Cl2

> <NMREDATA_TEMPERATURE>
300

> <NMREDATA_FORMULA>
C18H16BF4FeO3Rh

> <NMREDATA_SMILES>
F[B](F)(F)F.[O]#C[Fe]123(C#[O])(C#[O])C4C1C1[Rh]56789%103(C(C24)C5C%10C16)C1C9C2C8C7C1C2

> <NMREDATA_ASSIGNMENT>
Rh1, -67.00, 1

> <NMREDATA_1D_103Rh>
-67.00, L=Rh1

$$$$
LaurenceCarlton-2008_00147.mol
  ChemDraw08202411552D

 16 20  0  0  0  0  0  0  0  0999 V2000
    3.6031   -1.6357    0.0000 C    0  0  0  0  0  0  0  0  0  0  0  0
    3.3338   -0.8559    0.0000 C    0  0  0  0  0  0  0  0  0  0  0  0
    3.8745   -0.2327    0.0000 C    0  0  0  0  0  0  0  0  0  0  0  0
    3.6051    0.5471    0.0000 C    0  0  0  0  0  0  0  0  0  0  0  0
    4.1458    1.1702    0.0000 C    0  0  0  0  0  0  0  0  0  0  0  0
    2.7951    0.7038    0.0000 O    0  0  0  0  0  0  0  0  0  0  0  0
    2.5238   -0.6992    0.0000 O    0  0  0  0  0  0  0  0  0  0  0  0
    1.1178    0.3755    0.0000 Rh   0  0  0  0  0  0  0  0  0  0  0  0
   -4.1458    1.0523    0.0000 C    0  0  0  0  0  0  0  0  0  0  0  0
   -4.1458    0.2273    0.0000 C    0  0  0  0  0  0  0  0  0  0  0  0
   -3.5624   -0.3560    0.0000 C    0  0  0  0  0  0  0  0  0  0  0  0
   -2.7374   -0.3560    0.0000 C    0  0  0  0  0  0  0  0  0  0  0  0
   -2.1541    0.2273    0.0000 C    0  0  0  0  0  0  0  0  0  0  0  0
   -2.1541    1.0523    0.0000 C    0  0  0  0  0  0  0  0  0  0  0  0
   -2.7374    1.6357    0.0000 C    0  0  0  0  0  0  0  0  0  0  0  0
   -3.5624    1.6357    0.0000 C    0  0  0  0  0  0  0  0  0  0  0  0
  1  2  1  0  0
  2  3  1  0  0
  3  4  2  0  0
  4  5  1  0  0
  4  6  1  0  0
  2  7  2  0  0
  8  7  1  0  0
  6  8  1  0  0
  9 10  1  0  0
 10 11  2  0  0
 11 12  1  0  0
 12 13  1  0  0
 13 14  1  0  0
 14 15  1  0  0
 15 16  1  0  0
 16  9  2  0  0
 15  8  1  0  0
  8 14  1  0  0
 13  8  1  0  0
  8 12  1  0  0
M  END
> <NMREDATA_VERSION>
1.1

> <NMREDATA_LEVEL>
0

> <NMREDATA_SOLVENT>
CD2Cl2

> <NMREDATA_TEMPERATURE>
300

> <NMREDATA_FORMULA>
C13H15O2Rh

> <NMREDATA_SMILES>
CC1=CC(=[O][Rh]234(O1)C1C4C3C2C=CC=C1)C

> <NMREDATA_ASSIGNMENT>
Rh8, 1760.00, 8

> <NMREDATA_1D_103Rh>
1760.00, L=Rh8

$$$$
LaurenceCarlton-2008_00151.mol
  ChemDraw08202412072D

M  V30 COUNTS 23 32 0 0 1
  2.417452  1.320009  0.000000 C    0  0  0  0  0  0  0
  2.233842  0.515665  0.000000 C    0  0  0  0  0  0  0
  1.903036  1.964998  0.000000 C    0  0  0  0  0  0  0
  1.490536  0.157751  0.000000 C    0  0  0  0  0  0  0
  1.078036  1.964998  0.000000 C    0  0  0  0  0  0  0
  0.563683  1.320009  0.000000 C    0  0  0  0  0  0  0
  0.747230  0.515665  0.000000 C    0  0  0  0  0  0  0
 -0.523942 -0.650711  0.000000 Rh   0  0  0  0  0  0  0
  2.780315 -0.755473  0.000000 Fe   0  0  0  0  0  0  0
  2.175522 -1.316660  0.000000 C    0  0  0  0  0  0  0
  3.385047 -0.194349  0.000000 C    0  0  0  0  0  0  0
  3.341440 -1.360267  0.000000 C    0  0  0  0  0  0  0
  3.902564 -1.964998  0.000000 O    0  0  0  0  0  0  0
  3.989840  0.366775  0.000000 O    0  0  0  0  0  0  0
  1.570729 -1.877784  0.000000 O    0  0  0  0  0  0  0
 -2.581509 -1.739391  0.000000 C    0  0  0  0  0  0  0
 -3.406509 -1.739391  0.000000 C    0  0  0  0  0  0  0
 -1.998116 -1.155997  0.000000 C    0  0  0  0  0  0  0
 -1.998116 -0.330997  0.000000 C    0  0  0  0  0  0  0
 -3.989840 -1.155997  0.000000 C    0  0  0  0  0  0  0
 -2.581509  0.252333  0.000000 C    0  0  0  0  0  0  0
 -3.989840 -0.330997  0.000000 C    0  0  0  0  0  0  0
 -3.406509  0.252333  0.000000 C    0  0  0  0  0  0  0
  1  2  1  0  0  0  0
  1  3  1  0  0  0  0
  2  4  1  0  0  0  0
  3  5  1  0  0  0  0
  4  7  1  0  0  0  0
  5  6  1  0  0  0  0
  6  7  1  0  0  0  0
  9 10  1  0  0  0  0
  9 11  1  0  0  0  0
  9 12  1  0  0  0  0
 12 13  3  0  0  0  0
 11 14  3  0  0  0  0
 10 15  3  0  0  0  0
 16 17  1  0  0  0  0
 16 18  1  0  0  0  0
 17 20  1  0  0  0  0
 18 19  1  0  0  0  0
 19 21  1  0  0  0  0
 20 22  1  0  0  0  0
 21 23  1  0  0  0  0
 22 23  1  0  0  0  0
  4  8  1  0  0  0  0
  7  8  1  0  0  0  0
  6  8  1  0  0  0  0
  5  8  1  0  0  0  0
  3  9  1  0  0  0  0
  1  9  1  0  0  0  0
  2  9  1  0  0  0  0
 19  8  1  0  0  0  0
  8 18  1  0  0  0  0
 22  8  1  0  0  0  0
  8 20  1  0  0  0  0
M  END
> <NMREDATA_VERSION>
1.1

> <NMREDATA_LEVEL>
0

> <NMREDATA_SOLVENT>
C6D6

> <NMREDATA_TEMPERATURE>
300

> <NMREDATA_FORMULA>
C18H19FeO3Rh

> <NMREDATA_SMILES>
[O]#C[Fe]12(C#[O])(C#[O])C3C1C1C4[Rh]56781(C(C23)C45)C1C8CCC6C7CC1

> <NMREDATA_ASSIGNMENT>
Rh8, -133.00, 8

> <NMREDATA_1D_103Rh>
-133.00, L=Rh8

$$$$
LaurenceCarlton-2008_00153.mol
  ChemDraw08202412082D

M  V30 COUNTS 22 32 0 0 0
  2.417452  1.320009  0.000000 C    0  0  0  0  0  0  0
  2.233842  0.515665  0.000000 C    0  0  0  0  0  0  0
  1.903036  1.964998  0.000000 C    0  0  0  0  0  0  0
  1.490536  0.157751  0.000000 C    0  0  0  0  0  0  0
  1.078036  1.964998  0.000000 C    0  0  0  0  0  0  0
  0.563683  1.320009  0.000000 C    0  0  0  0  0  0  0
  0.747230  0.515665  0.000000 C    0  0  0  0  0  0  0
 -0.523942 -0.650711  0.000000 Rh   0  0  0  0  0  0  0
  2.780315 -0.755473  0.000000 Fe   0  0  0  0  0  0  0
  2.175522 -1.316660  0.000000 C    0  0  0  0  0  0  0
  3.385047 -0.194349  0.000000 C    0  0  0  0  0  0  0
  3.341440 -1.360267  0.000000 C    0  0  0  0  0  0  0
  3.902564 -1.964998  0.000000 O    0  0  0  0  0  0  0
  3.989840  0.366775  0.000000 O    0  0  0  0  0  0  0
  1.570729 -1.877784  0.000000 O    0  0  0  0  0  0  0
 -3.406509 -1.739391  0.000000 C    0  0  0  0  0  0  0
 -1.998116 -1.155997  0.000000 C    0  0  0  0  0  0  0
 -1.998116 -0.330997  0.000000 C    0  0  0  0  0  0  0
 -3.989840 -1.155997  0.000000 C    0  0  0  0  0  0  0
 -2.581509  0.252333  0.000000 C    0  0  0  0  0  0  0
 -3.989840 -0.330997  0.000000 C    0  0  0  0  0  0  0
 -2.795035 -0.544555  0.000000 C    0  0  0  0  0  0  0
  1  2  1  0  0  0  0
  1  3  1  0  0  0  0
  2  4  1  0  0  0  0
  3  5  1  0  0  0  0
  4  7  1  0  0  0  0
  5  6  1  0  0  0  0
  6  7  1  0  0  0  0
  9 10  1  0  0  0  0
  9 11  1  0  0  0  0
  9 12  1  0  0  0  0
 12 13  3  0  0  0  0
 11 14  3  0  0  0  0
 10 15  3  0  0  0  0
 16 19  1  0  0  0  0
 17 18  1  0  0  0  0
 18 20  1  0  0  0  0
 19 21  1  0  0  0  0
  4  8  1  0  0  0  0
  7  8  1  0  0  0  0
  6  8  1  0  0  0  0
  5  8  1  0  0  0  0
  3  9  1  0  0  0  0
  1  9  1  0  0  0  0
  2  9  1  0  0  0  0
 18  8  1  0  0  0  0
  8 17  1  0  0  0  0
 21  8  1  0  0  0  0
  8 19  1  0  0  0  0
 17 16  1  0  0  0  0
 21 20  1  0  0  0  0
 20 22  1  0  0  0  0
 22 16  1  0  0  0  0
M  END
> <NMREDATA_VERSION>
1.1

> <NMREDATA_LEVEL>
0

> <NMREDATA_SOLVENT>
C6D6

> <NMREDATA_TEMPERATURE>
300

> <NMREDATA_FORMULA>
C17H15FeO3Rh

> <NMREDATA_SMILES>
[O]#C[Fe]12(C#[O])(C#[O])C3C1C1C4[Rh]56781(C(C23)C45)C1C8C2C7C6C1C2

> <NMREDATA_ASSIGNMENT>
Rh8, -86.00, 8

> <NMREDATA_1D_103Rh>
-86.00, L=Rh8

$$$$
LaurenceCarlton-2008_00154.mol
  ChemDraw08202412092D

M  V30 COUNTS 19 24 0 0 0
  1.509503  1.487866  0.000000 C    0  0  0  0  0  0  0
  1.325893  0.683521  0.000000 C    0  0  0  0  0  0  0
  0.995087  2.132854  0.000000 C    0  0  0  0  0  0  0
  0.582587  0.325607  0.000000 C    0  0  0  0  0  0  0
  0.170087  2.132854  0.000000 C    0  0  0  0  0  0  0
 -0.344266  1.487866  0.000000 C    0  0  0  0  0  0  0
 -0.160719  0.683521  0.000000 C    0  0  0  0  0  0  0
 -1.431891 -0.482854  0.000000 Rh   0  0  0  0  0  0  0
  1.872366 -0.587616  0.000000 Fe   0  0  0  0  0  0  0
  1.267573 -1.148803  0.000000 C    0  0  0  0  0  0  0
  2.477098 -0.026492  0.000000 C    0  0  0  0  0  0  0
  2.433491 -1.192410  0.000000 C    0  0  0  0  0  0  0
  2.994615 -1.797141  0.000000 O    0  0  0  0  0  0  0
  3.081891  0.534632  0.000000 O    0  0  0  0  0  0  0
  0.662780 -1.709927  0.000000 O    0  0  0  0  0  0  0
 -2.256891 -0.482854  0.000000 C    0  0  0  0  0  0  0
 -1.431891 -1.307854  0.000000 C    0  0  0  0  0  0  0
 -3.081891 -0.482854  0.000000 O    0  0  0  0  0  0  0
 -1.431891 -2.132854  0.000000 O    0  0  0  0  0  0  0
  1  2  1  0  0  0  0
  1  3  1  0  0  0  0
  2  4  1  0  0  0  0
  3  5  1  0  0  0  0
  4  7  1  0  0  0  0
  5  6  1  0  0  0  0
  6  7  1  0  0  0  0
  9 10  1  0  0  0  0
  9 11  1  0  0  0  0
  9 12  1  0  0  0  0
 12 13  3  0  0  0  0
 11 14  3  0  0  0  0
 10 15  3  0  0  0  0
  4  8  1  0  0  0  0
  7  8  1  0  0  0  0
  6  8  1  0  0  0  0
  5  8  1  0  0  0  0
  3  9  1  0  0  0  0
  1  9  1  0  0  0  0
  2  9  1  0  0  0  0
  8 16  1  0  0  0  0
  8 17  1  0  0  0  0
 16 18  3  0  0  0  0
 17 19  3  0  0  0  0
M  END
> <NMREDATA_VERSION>
1.1

> <NMREDATA_LEVEL>
0

> <NMREDATA_SOLVENT>
acetone

> <NMREDATA_TEMPERATURE>
300

> <NMREDATA_FORMULA>
C12H7FeO5Rh

> <NMREDATA_SMILES>
[O]#C[Rh]123(C#[O])C4C1C2C1C2C(C34)[Fe]12(C#[O])(C#[O])C#[O]

> <NMREDATA_ASSIGNMENT>
Rh8, -739.00, 8

> <NMREDATA_1D_103Rh>
-739.00, L=Rh8

$$$$
LaurenceCarlton-2008_00156.mol
  ChemDraw08202412102D

M  V30 COUNTS 10 17 0 0 0
 -1.245676  0.108895  0.000000 C    0  0  0  0  0  0  0
 -1.648256  0.806182  0.000000 C    0  0  0  0  0  0  0
 -1.245676  1.503409  0.000000 C    0  0  0  0  0  0  0
 -0.420676  1.503409  0.000000 C    0  0  0  0  0  0  0
 -0.440577  0.108895  0.000000 Rh   0  0  0  0  0  0  0
  0.342507 -0.511412  0.000000 C    0  0  0  0  0  0  0
  1.096181 -0.175825  0.000000 C    0  0  0  0  0  0  0
  0.428729 -1.331893  0.000000 C    0  0  0  0  0  0  0
  1.648256 -0.788938  0.000000 C    0  0  0  0  0  0  0
  1.235750 -1.503409  0.000000 C    0  0  0  0  0  0  0
  1  2  1  0  0  0  0
  2  3  1  0  0  0  0
  3  4  1  0  0  0  0
  1  5  1  0  0  0  0
  6  7  1  0  0  0  0
  6  8  1  0  0  0  0
  7  9  1  0  0  0  0
  8 10  1  0  0  0  0
  9 10  1  0  0  0  0
  2  5  1  0  0  0  0
  3  5  1  0  0  0  0
  4  5  1  0  0  0  0
  6  5  1  0  0  0  0
  8  5  1  0  0  0  0
  7  5  1  0  0  0  0
  9  5  1  0  0  0  0
 10  5  1  0  0  0  0
M  END
> <NMREDATA_VERSION>
1.1

> <NMREDATA_LEVEL>
0

> <NMREDATA_SOLVENT>
hexane-d14

> <NMREDATA_TEMPERATURE>
300

> <NMREDATA_FORMULA>
C9H11Rh

> <NMREDATA_SMILES>
C1C2[Rh]345671(C2C3)C1C6C5C4C71

> <NMREDATA_ASSIGNMENT>
Rh5, -1256.00, 5

> <NMREDATA_1D_103Rh>
-1256.00, L=Rh5

$$$$
LaurenceCarlton-2008_00157.mol
  ChemDraw08202412102D

M  V30 COUNTS 10 18 0 0 0
 -1.245676  0.108895  0.000000 C    0  0  0  0  0  0  0
 -1.648256  0.806182  0.000000 C    0  0  0  0  0  0  0
 -1.245676  1.503409  0.000000 C    0  0  0  0  0  0  0
 -0.420676  1.503409  0.000000 C    0  0  0  0  0  0  0
 -0.440577  0.108895  0.000000 Rh   0  0  0  0  0  0  0
  0.342507 -0.511412  0.000000 C    0  0  0  0  0  0  0
  1.096181 -0.175825  0.000000 C    0  0  0  0  0  0  0
  0.428729 -1.331893  0.000000 C    0  0  0  0  0  0  0
  1.648256 -0.788938  0.000000 C    0  0  0  0  0  0  0
  1.235750 -1.503409  0.000000 C    0  0  0  0  0  0  0
  1  2  1  0  0  0  0
  2  3  1  0  0  0  0
  3  4  1  0  0  0  0
  1  5  1  0  0  0  0
  6  7  1  0  0  0  0
  6  8  1  0  0  0  0
  7  9  1  0  0  0  0
  8 10  1  0  0  0  0
  9 10  1  0  0  0  0
  2  5  1  0  0  0  0
  3  5  1  0  0  0  0
  4  5  1  0  0  0  0
  6  5  1  0  0  0  0
  8  5  1  0  0  0  0
  7  5  1  0  0  0  0
  9  5  1  0  0  0  0
 10  5  1  0  0  0  0
  4  1  1  0  0  0  0
M  END
> <NMREDATA_VERSION>
1.1

> <NMREDATA_LEVEL>
0

> <NMREDATA_SOLVENT>
pentane-d12

> <NMREDATA_TEMPERATURE>
300

> <NMREDATA_FORMULA>
C9H9Rh

> <NMREDATA_SMILES>
C12C3C4C5C1[Rh]1672345C2C1C7C62

> <NMREDATA_ASSIGNMENT>
Rh5, -2057.00, 5

> <NMREDATA_1D_103Rh>
-2057.00, L=Rh5

$$$$
LaurenceCarlton-2008_00158.mol
  ChemDraw08202412112D

M  V30 COUNTS 11 18 0 0 0
 -1.245676 -0.180698  0.000000 C    0  0  0  0  0  0  0
 -1.648256  0.516589  0.000000 C    0  0  0  0  0  0  0
 -1.245676  1.213816  0.000000 C    0  0  0  0  0  0  0
 -0.420676  1.213816  0.000000 C    0  0  0  0  0  0  0
 -0.440577 -0.180698  0.000000 Rh   0  0  0  0  0  0  0
  0.342507 -0.801005  0.000000 C    0  0  0  0  0  0  0
  1.096181 -0.465418  0.000000 C    0  0  0  0  0  0  0
  0.428729 -1.621486  0.000000 C    0  0  0  0  0  0  0
  1.648256 -1.078531  0.000000 C    0  0  0  0  0  0  0
  1.235750 -1.793002  0.000000 C    0  0  0  0  0  0  0
  0.166835  1.793002  0.000000 C    0  0  0  0  0  0  0
  1  2  1  0  0  0  0
  2  3  1  0  0  0  0
  3  4  1  0  0  0  0
  1  5  1  0  0  0  0
  6  7  1  0  0  0  0
  6  8  1  0  0  0  0
  7  9  1  0  0  0  0
  8 10  1  0  0  0  0
  9 10  1  0  0  0  0
  2  5  1  0  0  0  0
  3  5  1  0  0  0  0
  4  5  1  0  0  0  0
  6  5  1  0  0  0  0
  8  5  1  0  0  0  0
  7  5  1  0  0  0  0
  9  5  1  0  0  0  0
 10  5  1  0  0  0  0
  4 11  1  0  0  0  0
M  END
> <NMREDATA_VERSION>
1.1

> <NMREDATA_LEVEL>
0

> <NMREDATA_SOLVENT>
C6D6

> <NMREDATA_TEMPERATURE>
300

> <NMREDATA_FORMULA>
C10H13Rh

> <NMREDATA_SMILES>
CC1C2[Rh]345671(C2C3)C1C6C5C4C71

> <NMREDATA_ASSIGNMENT>
Rh5, -1004.00, 5

> <NMREDATA_1D_103Rh>
-1004.00, L=Rh5

$$$$
LaurenceCarlton-2008_00159.mol
  ChemDraw08202412112D

M  V30 COUNTS 12 19 0 0 0
 -1.240716 -0.180698  0.000000 C    0  0  0  0  0  0  0
 -1.643295  0.516589  0.000000 C    0  0  0  0  0  0  0
 -1.240716  1.213816  0.000000 C    0  0  0  0  0  0  0
 -0.415716  1.213816  0.000000 C    0  0  0  0  0  0  0
 -0.435617 -0.180698  0.000000 Rh   0  0  0  0  0  0  0
  0.347467 -0.801005  0.000000 C    0  0  0  0  0  0  0
  1.101142 -0.465418  0.000000 C    0  0  0  0  0  0  0
  0.433689 -1.621486  0.000000 C    0  0  0  0  0  0  0
  1.653216 -1.078531  0.000000 C    0  0  0  0  0  0  0
  1.240711 -1.793002  0.000000 C    0  0  0  0  0  0  0
  0.171795  1.793002  0.000000 C    0  0  0  0  0  0  0
 -1.653216 -0.895170  0.000000 C    0  0  0  0  0  0  0
  1  2  1  0  0  0  0
  2  3  1  0  0  0  0
  3  4  1  0  0  0  0
  1  5  1  0  0  0  0
  6  7  1  0  0  0  0
  6  8  1  0  0  0  0
  7  9  1  0  0  0  0
  8 10  1  0  0  0  0
  9 10  1  0  0  0  0
  2  5  1  0  0  0  0
  3  5  1  0  0  0  0
  4  5  1  0  0  0  0
  6  5  1  0  0  0  0
  8  5  1  0  0  0  0
  7  5  1  0  0  0  0
  9  5  1  0  0  0  0
 10  5  1  0  0  0  0
  4 11  1  0  0  0  0
  1 12  1  0  0  0  0
M  END
> <NMREDATA_VERSION>
1.1

> <NMREDATA_LEVEL>
0

> <NMREDATA_SOLVENT>
hexane-d14

> <NMREDATA_TEMPERATURE>
300

> <NMREDATA_FORMULA>
C11H15Rh

> <NMREDATA_SMILES>
CC1C2[Rh]345671(C2C3C)C1C6C5C4C71

> <NMREDATA_ASSIGNMENT>
Rh5, -1120.00, 5

> <NMREDATA_1D_103Rh>
-1120.00, L=Rh5

$$$$
LaurenceCarlton-2008_00160.mol
  ChemDraw08202412112D

M  V30 COUNTS 12 19 0 0 0
 -0.833176 -0.248345  0.000000 C    0  0  0  0  0  0  0
 -1.235756  0.448943  0.000000 C    0  0  0  0  0  0  0
 -0.833176  1.146170  0.000000 C    0  0  0  0  0  0  0
 -0.008176  1.146170  0.000000 C    0  0  0  0  0  0  0
 -0.028077 -0.248345  0.000000 Rh   0  0  0  0  0  0  0
  0.755007 -0.868652  0.000000 C    0  0  0  0  0  0  0
  1.508681 -0.533065  0.000000 C    0  0  0  0  0  0  0
  0.841229 -1.689133  0.000000 C    0  0  0  0  0  0  0
  2.060756 -1.146177  0.000000 C    0  0  0  0  0  0  0
  1.648250 -1.860649  0.000000 C    0  0  0  0  0  0  0
 -1.245662  1.860649  0.000000 C    0  0  0  0  0  0  0
 -2.060756  0.448959  0.000000 C    0  0  0  0  0  0  0
  1  2  1  0  0  0  0
  2  3  1  0  0  0  0
  3  4  1  0  0  0  0
  1  5  1  0  0  0  0
  6  7  1  0  0  0  0
  6  8  1  0  0  0  0
  7  9  1  0  0  0  0
  8 10  1  0  0  0  0
  9 10  1  0  0  0  0
  2  5  1  0  0  0  0
  3  5  1  0  0  0  0
  4  5  1  0  0  0  0
  6  5  1  0  0  0  0
  8  5  1  0  0  0  0
  7  5  1  0  0  0  0
  9  5  1  0  0  0  0
 10  5  1  0  0  0  0
  3 11  1  0  0  0  0
  2 12  1  0  0  0  0
M  END
> <NMREDATA_VERSION>
1.1

> <NMREDATA_LEVEL>
0

> <NMREDATA_SOLVENT>
C6D6

> <NMREDATA_TEMPERATURE>
296

> <NMREDATA_FORMULA>
C11H15Rh

> <NMREDATA_SMILES>
CC12C[Rh]345671(C2(C3)C)C1C6C5C4C71

> <NMREDATA_ASSIGNMENT>
Rh5, -1109.00, 5

> <NMREDATA_1D_103Rh>
-1109.00, L=Rh5

$$$$
LaurenceCarlton-2008_00161.mol
  ChemDraw08202412122D

M  V30 COUNTS 12 19 0 0 0
 -0.090766  0.165822  0.000000 Rh   0  0  0  0  0  0  0
  0.692318 -0.454484  0.000000 C    0  0  0  0  0  0  0
  1.445992 -0.118898  0.000000 C    0  0  0  0  0  0  0
  0.778540 -1.274966  0.000000 C    0  0  0  0  0  0  0
  1.998067 -0.732010  0.000000 C    0  0  0  0  0  0  0
  1.585561 -1.446481  0.000000 C    0  0  0  0  0  0  0
 -1.375918  0.145547  0.000000 C    0  0  0  0  0  0  0
 -0.668373  0.569816  0.000000 C    0  0  0  0  0  0  0
 -0.853234  1.373839  0.000000 C    0  0  0  0  0  0  0
 -1.675030  1.446481  0.000000 C    0  0  0  0  0  0  0
 -1.998067  0.687356  0.000000 C    0  0  0  0  0  0  0
 -1.348397  0.128895  0.000000 C    0  0  0  0  0  0  0
  2  3  1  0  0  0  0
  2  4  1  0  0  0  0
  3  5  1  0  0  0  0
  4  6  1  0  0  0  0
  5  6  1  0  0  0  0
  2  1  1  0  0  0  0
  4  1  1  0  0  0  0
  3  1  1  0  0  0  0
  5  1  1  0  0  0  0
  6  1  1  0  0  0  0
  7  8  1  0  0  0  0
  8  9  1  0  0  0  0
  9 10  1  0  0  0  0
 10 11  1  0  0  0  0
 11  7  1  0  0  0  0
 11  1  1  0  0  0  0
 12  1  1  0  0  0  0
  8  1  1  0  0  0  0
  9  1  1  0  0  0  0
M  END
> <NMREDATA_VERSION>
1.1

> <NMREDATA_LEVEL>
0

> <NMREDATA_SOLVENT>
C6D6

> <NMREDATA_TEMPERATURE>
300

> <NMREDATA_FORMULA>
C11H15Rh

> <NMREDATA_SMILES>
C[Rh]123456(C7CC2C1C7)C1C5C4C3C61

> <NMREDATA_ASSIGNMENT>
Rh1, -958.00, 1

> <NMREDATA_1D_103Rh>
-958.00, L=Rh1

$$$$
LaurenceCarlton-2008_00162.mol
  ChemDraw08202412132D

M  V30 COUNTS 12 19 0 0 1
 -0.099066 -0.483099  0.000000 Rh   0  0  0  0  0  0  0
  0.684017 -1.103406  0.000000 C    0  0  0  0  0  0  0
  1.437692 -0.767819  0.000000 C    0  0  0  0  0  0  0
  0.770240 -1.923887  0.000000 C    0  0  0  0  0  0  0
  1.989766 -1.380932  0.000000 C    0  0  0  0  0  0  0
  1.577261 -2.095403  0.000000 C    0  0  0  0  0  0  0
 -1.989766 -0.138952  0.000000 C    0  0  0  0  0  0  0
 -1.192878  0.074574  0.000000 C    0  0  0  0  0  0  0
 -0.979353  0.871463  0.000000 C    0  0  0  0  0  0  0
 -0.182463  1.084988  0.000000 C    0  0  0  0  0  0  0
  0.031062  1.881877  0.000000 C    0  0  0  0  0  0  0
  0.827951  2.095403  0.000000 C    0  0  0  0  0  0  0
  2  3  1  0  0  0  0
  2  4  1  0  0  0  0
  3  5  1  0  0  0  0
  4  6  1  0  0  0  0
  5  6  1  0  0  0  0
  2  1  1  0  0  0  0
  4  1  1  0  0  0  0
  3  1  1  0  0  0  0
  5  1  1  0  0  0  0
  6  1  1  0  0  0  0
  7  8  1  0  0  0  0
  8  9  1  0  0  0  0
  9 10  1  0  0  0  0
 10 11  1  0  0  0  0
 11 12  1  0  0  0  0
  7  1  1  0  0  0  0
  8  1  1  0  0  0  0
 11  1  1  0  0  0  0
 12  1  1  0  0  0  0
M  END
> <NMREDATA_VERSION>
1.1

> <NMREDATA_LEVEL>
0

> <NMREDATA_SOLVENT>
hexane-d14

> <NMREDATA_TEMPERATURE>
300

> <NMREDATA_FORMULA>
C11H15Rh

> <NMREDATA_SMILES>
C1CC2[Rh]34567(C1C3)(C2)C1C6C5C4C71

> <NMREDATA_ASSIGNMENT>
Rh1, -780.00, 1

> <NMREDATA_1D_103Rh>
-780.00, L=Rh1

$$$$
LaurenceCarlton-2008_00163.mol
  ChemDraw08202412142D

M  V30 COUNTS 12 20 0 0 0
  0.126577 -0.151713  0.000000 Rh   0  0  0  0  0  0  0
  0.909661 -0.772019  0.000000 C    0  0  0  0  0  0  0
  1.663336 -0.436433  0.000000 C    0  0  0  0  0  0  0
  0.995884 -1.592501  0.000000 C    0  0  0  0  0  0  0
  2.215410 -1.049545  0.000000 C    0  0  0  0  0  0  0
  1.802905 -1.764016  0.000000 C    0  0  0  0  0  0  0
 -2.215410  1.351516  0.000000 C    0  0  0  0  0  0  0
 -2.215410  0.526516  0.000000 C    0  0  0  0  0  0  0
 -1.500939  0.114016  0.000000 C    0  0  0  0  0  0  0
 -0.786469  0.526516  0.000000 C    0  0  0  0  0  0  0
 -0.786469  1.351516  0.000000 C    0  0  0  0  0  0  0
 -1.500939  1.764016  0.000000 C    0  0  0  0  0  0  0
  2  3  1  0  0  0  0
  2  4  1  0  0  0  0
  3  5  1  0  0  0  0
  4  6  1  0  0  0  0
  5  6  1  0  0  0  0
  2  1  1  0  0  0  0
  4  1  1  0  0  0  0
  3  1  1  0  0  0  0
  5  1  1  0  0  0  0
  6  1  1  0  0  0  0
  7  8  1  0  0  0  0
  8  9  1  0  0  0  0
  9 10  1  0  0  0  0
 10 11  1  0  0  0  0
 11 12  1  0  0  0  0
 12  7  1  0  0  0  0
  9  1  1  0  0  0  0
 10  1  1  0  0  0  0
 12  1  1  0  0  0  0
 11  1  1  0  0  0  0
M  END
> <NMREDATA_VERSION>
1.1

> <NMREDATA_LEVEL>
0

> <NMREDATA_SOLVENT>
THF

> <NMREDATA_TEMPERATURE>
300

> <NMREDATA_FORMULA>
C11H13Rh

> <NMREDATA_SMILES>
C1CC2[Rh]345678(C1C3C24)C1C7C6C5C81

> <NMREDATA_ASSIGNMENT>
Rh1, -1272.00, 1

> <NMREDATA_1D_103Rh>
-1272.00, L=Rh1

$$$$
LaurenceCarlton-2008_00164.mol
  ChemDraw08202412192D

M  V30 COUNTS 12 20 0 0 0
 -0.102795 -0.029851  0.000000 Rh   0  0  0  0  0  0  0
  0.680289 -0.650158  0.000000 C    0  0  0  0  0  0  0
  1.433964 -0.314571  0.000000 C    0  0  0  0  0  0  0
  0.766512 -1.470639  0.000000 C    0  0  0  0  0  0  0
  1.986038 -0.927684  0.000000 C    0  0  0  0  0  0  0
  1.573533 -1.642155  0.000000 C    0  0  0  0  0  0  0
 -1.402674  0.475429  0.000000 C    0  0  0  0  0  0  0
 -0.819312  1.058792  0.000000 C    0  0  0  0  0  0  0
 -1.402674  1.642155  0.000000 C    0  0  0  0  0  0  0
 -1.986038  1.058792  0.000000 C    0  0  0  0  0  0  0
 -1.402674 -0.349571  0.000000 C    0  0  0  0  0  0  0
  0.005688  1.058792  0.000000 C    0  0  0  0  0  0  0
  2  3  1  0  0  0  0
  2  4  1  0  0  0  0
  3  5  1  0  0  0  0
  4  6  1  0  0  0  0
  5  6  1  0  0  0  0
  2  1  1  0  0  0  0
  4  1  1  0  0  0  0
  3  1  1  0  0  0  0
  5  1  1  0  0  0  0
  6  1  1  0  0  0  0
  7  8  1  0  0  0  0
  8  9  1  0  0  0  0
  9 10  1  0  0  0  0
 10  7  1  0  0  0  0
  7 11  1  0  0  0  0
  8 12  1  0  0  0  0
  8  1  1  0  0  0  0
 12  1  1  0  0  0  0
 11  1  1  0  0  0  0
  7  1  1  0  0  0  0
M  END
> <NMREDATA_VERSION>
1.1

> <NMREDATA_LEVEL>
0

> <NMREDATA_SOLVENT>
hexane-d14

> <NMREDATA_TEMPERATURE>
300

> <NMREDATA_FORMULA>
C11H13Rh

> <NMREDATA_SMILES>
C1CC23C41C[Rh]156724(C3)C2C6C5C1C72

> <NMREDATA_ASSIGNMENT>
Rh1, -706.00, 1

> <NMREDATA_1D_103Rh>
-706.00, L=Rh1

$$$$
LaurenceCarlton-2008_00165.mol
  ChemDraw08202412152D

M  V30 COUNTS 13 21 0 0 0
  0.179751 -0.151713  0.000000 Rh   0  0  0  0  0  0  0
  0.962835 -0.772019  0.000000 C    0  0  0  0  0  0  0
  1.716510 -0.436433  0.000000 C    0  0  0  0  0  0  0
  1.049057 -1.592501  0.000000 C    0  0  0  0  0  0  0
  2.268584 -1.049545  0.000000 C    0  0  0  0  0  0  0
  1.856079 -1.764016  0.000000 C    0  0  0  0  0  0  0
 -2.162236  0.526516  0.000000 C    0  0  0  0  0  0  0
 -1.447765  0.114016  0.000000 C    0  0  0  0  0  0  0
 -0.733295  0.526516  0.000000 C    0  0  0  0  0  0  0
 -0.733295  1.351516  0.000000 C    0  0  0  0  0  0  0
 -1.447765  1.764016  0.000000 C    0  0  0  0  0  0  0
 -2.011730  1.524466  0.000000 C    0  0  0  0  0  0  0
 -2.268584  1.026144  0.000000 C    0  0  0  0  0  0  0
  2  3  1  0  0  0  0
  2  4  1  0  0  0  0
  3  5  1  0  0  0  0
  4  6  1  0  0  0  0
  5  6  1  0  0  0  0
  2  1  1  0  0  0  0
  4  1  1  0  0  0  0
  3  1  1  0  0  0  0
  5  1  1  0  0  0  0
  6  1  1  0  0  0  0
  7  8  1  0  0  0  0
  8  9  1  0  0  0  0
  9 10  1  0  0  0  0
 10 11  1  0  0  0  0
  8  1  1  0  0  0  0
  9  1  1  0  0  0  0
 11  1  1  0  0  0  0
 10  1  1  0  0  0  0
 11 12  1  0  0  0  0
  7 13  1  0  0  0  0
 13 12  1  0  0  0  0
M  END
> <NMREDATA_VERSION>
1.1

> <NMREDATA_LEVEL>
0

> <NMREDATA_SOLVENT>
THF

> <NMREDATA_TEMPERATURE>
300

> <NMREDATA_FORMULA>
C12H15Rh

> <NMREDATA_SMILES>
C1CC2C3[Rh]456782(C(C1)C34)C1C7C6C5C81

> <NMREDATA_ASSIGNMENT>
Rh1, -940.00, 1

> <NMREDATA_1D_103Rh>
-940.00, L=Rh1

$$$$
LaurenceCarlton-2008_00166.mol
  ChemDraw08202412152D

M  V30 COUNTS 13 21 0 0 0
  0.179751 -0.151713  0.000000 Rh   0  0  0  0  0  0  0
  0.962835 -0.772019  0.000000 C    0  0  0  0  0  0  0
  1.716510 -0.436433  0.000000 C    0  0  0  0  0  0  0
  1.049057 -1.592501  0.000000 C    0  0  0  0  0  0  0
  2.268584 -1.049545  0.000000 C    0  0  0  0  0  0  0
  1.856079 -1.764016  0.000000 C    0  0  0  0  0  0  0
 -2.162236  0.526516  0.000000 C    0  0  0  0  0  0  0
 -1.447765  0.114016  0.000000 C    0  0  0  0  0  0  0
 -0.733295  0.526516  0.000000 C    0  0  0  0  0  0  0
 -0.733295  1.351516  0.000000 C    0  0  0  0  0  0  0
 -1.447765  1.764016  0.000000 C    0  0  0  0  0  0  0
 -2.011730  1.524466  0.000000 C    0  0  0  0  0  0  0
 -2.268584  1.026144  0.000000 C    0  0  0  0  0  0  0
  2  3  1  0  0  0  0
  2  4  1  0  0  0  0
  3  5  1  0  0  0  0
  4  6  1  0  0  0  0
  5  6  1  0  0  0  0
  2  1  1  0  0  0  0
  4  1  1  0  0  0  0
  3  1  1  0  0  0  0
  5  1  1  0  0  0  0
  6  1  1  0  0  0  0
  7  8  1  0  0  0  0
  8  9  1  0  0  0  0
  9 10  1  0  0  0  0
 10 11  1  0  0  0  0
  8  1  1  0  0  0  0
  9  1  1  0  0  0  0
 11  1  1  0  0  0  0
 10  1  1  0  0  0  0
 11 12  1  0  0  0  0
  7 13  1  0  0  0  0
 13 12  1  0  0  0  0
M  END
> <NMREDATA_VERSION>
1.1

> <NMREDATA_LEVEL>
0

> <NMREDATA_SOLVENT>
acetone

> <NMREDATA_TEMPERATURE>
300

> <NMREDATA_FORMULA>
C12H15Rh

> <NMREDATA_SMILES>
C1CC2C3[Rh]456782(C(C1)C34)C1C7C6C5C81

> <NMREDATA_ASSIGNMENT>
Rh1, -938.00, 1

> <NMREDATA_1D_103Rh>
-938.00, L=Rh1

$$$$
LaurenceCarlton-2008_00167.mol
  ChemDraw08202412152D

M  V30 COUNTS 13 22 0 0 0
  0.126577 -0.151713  0.000000 Rh   0  0  0  0  0  0  0
  0.909661 -0.772019  0.000000 C    0  0  0  0  0  0  0
  1.663336 -0.436433  0.000000 C    0  0  0  0  0  0  0
  0.995884 -1.592501  0.000000 C    0  0  0  0  0  0  0
  2.215410 -1.049545  0.000000 C    0  0  0  0  0  0  0
  1.802905 -1.764016  0.000000 C    0  0  0  0  0  0  0
 -2.215410  1.351516  0.000000 C    0  0  0  0  0  0  0
 -2.215410  0.526516  0.000000 C    0  0  0  0  0  0  0
 -1.500939  0.114016  0.000000 C    0  0  0  0  0  0  0
 -0.786469  0.526516  0.000000 C    0  0  0  0  0  0  0
 -0.786469  1.351516  0.000000 C    0  0  0  0  0  0  0
 -1.500939  1.764016  0.000000 C    0  0  0  0  0  0  0
 -1.714465  0.910906  0.000000 C    0  0  0  0  0  0  0
  2  3  1  0  0  0  0
  2  4  1  0  0  0  0
  3  5  1  0  0  0  0
  4  6  1  0  0  0  0
  5  6  1  0  0  0  0
  2  1  1  0  0  0  0
  4  1  1  0  0  0  0
  3  1  1  0  0  0  0
  5  1  1  0  0  0  0
  6  1  1  0  0  0  0
  7  8  1  0  0  0  0
  8  9  1  0  0  0  0
  9 10  1  0  0  0  0
 10 11  1  0  0  0  0
 11 12  1  0  0  0  0
 12  7  1  0  0  0  0
 10  1  1  0  0  0  0
 11  1  1  0  0  0  0
  7  1  1  0  0  0  0
  1  8  1  0  0  0  0
  9 13  1  0  0  0  0
 13 12  1  0  0  0  0
M  END
> <NMREDATA_VERSION>
1.1

> <NMREDATA_LEVEL>
0

> <NMREDATA_SOLVENT>
THF

> <NMREDATA_TEMPERATURE>
300

> <NMREDATA_FORMULA>
C12H13Rh

> <NMREDATA_SMILES>
C1C2C3C4C1C1C2[Rh]2567341C1C6C5C2C71

> <NMREDATA_ASSIGNMENT>
Rh1, -786.00, 1

> <NMREDATA_1D_103Rh>
-786.00, L=Rh1

$$$$
LaurenceCarlton-2008_00168.mol
  ChemDraw08202412162D

M  V30 COUNTS 14 22 0 0 1
  0.425721 -0.043785  0.000000 Rh   0  0  0  0  0  0  0
  1.208805 -0.664092  0.000000 C    0  0  0  0  0  0  0
  1.962480 -0.328505  0.000000 C    0  0  0  0  0  0  0
  1.295027 -1.484573  0.000000 C    0  0  0  0  0  0  0
  2.514554 -0.941618  0.000000 C    0  0  0  0  0  0  0
  2.102048 -1.656089  0.000000 C    0  0  0  0  0  0  0
 -2.514554  1.072725  0.000000 C    0  0  0  0  0  0  0
 -2.514554  0.247725  0.000000 C    0  0  0  0  0  0  0
 -1.931190 -0.335638  0.000000 C    0  0  0  0  0  0  0
 -1.106190 -0.335638  0.000000 C    0  0  0  0  0  0  0
 -0.522827  0.247725  0.000000 C    0  0  0  0  0  0  0
 -0.522827  1.072725  0.000000 C    0  0  0  0  0  0  0
 -1.106190  1.656089  0.000000 C    0  0  0  0  0  0  0
 -1.931190  1.656089  0.000000 C    0  0  0  0  0  0  0
  2  3  1  0  0  0  0
  2  4  1  0  0  0  0
  3  5  1  0  0  0  0
  4  6  1  0  0  0  0
  5  6  1  0  0  0  0
  2  1  1  0  0  0  0
  4  1  1  0  0  0  0
  3  1  1  0  0  0  0
  5  1  1  0  0  0  0
  6  1  1  0  0  0  0
  7  8  1  0  0  0  0
  8  9  1  0  0  0  0
  9 10  1  0  0  0  0
 10 11  1  0  0  0  0
 11 12  1  0  0  0  0
 12 13  1  0  0  0  0
 13 14  1  0  0  0  0
 14  7  1  0  0  0  0
  7  1  1  0  0  0  0
 11  1  1  0  0  0  0
 12  1  1  0  0  0  0
  8  1  1  0  0  0  0
M  END
> <NMREDATA_VERSION>
1.1

> <NMREDATA_LEVEL>
0

> <NMREDATA_SOLVENT>
toluene-d8

> <NMREDATA_TEMPERATURE>
300

> <NMREDATA_FORMULA>
C13H17Rh

> <NMREDATA_SMILES>
C1CC2[Rh]345678(C1C3CCC24)C1C7C6C5C81

> <NMREDATA_ASSIGNMENT>
Rh1, -787.00, 1

> <NMREDATA_1D_103Rh>
-787.00, L=Rh1

$$$$
LaurenceCarlton-2008_00169.mol
  ChemDraw08202412162D

M  V30 COUNTS 14 22 0 0 1
  0.425721 -0.043785  0.000000 Rh   0  0  0  0  0  0  0
  1.208805 -0.664092  0.000000 C    0  0  0  0  0  0  0
  1.962480 -0.328505  0.000000 C    0  0  0  0  0  0  0
  1.295027 -1.484573  0.000000 C    0  0  0  0  0  0  0
  2.514554 -0.941618  0.000000 C    0  0  0  0  0  0  0
  2.102048 -1.656089  0.000000 C    0  0  0  0  0  0  0
 -2.514554  1.072725  0.000000 C    0  0  0  0  0  0  0
 -2.514554  0.247725  0.000000 C    0  0  0  0  0  0  0
 -1.931190 -0.335638  0.000000 C    0  0  0  0  0  0  0
 -1.106190 -0.335638  0.000000 C    0  0  0  0  0  0  0
 -0.522827  0.247725  0.000000 C    0  0  0  0  0  0  0
 -0.522827  1.072725  0.000000 C    0  0  0  0  0  0  0
 -1.106190  1.656089  0.000000 C    0  0  0  0  0  0  0
 -1.931190  1.656089  0.000000 C    0  0  0  0  0  0  0
  2  3  1  0  0  0  0
  2  4  1  0  0  0  0
  3  5  1  0  0  0  0
  4  6  1  0  0  0  0
  5  6  1  0  0  0  0
  2  1  1  0  0  0  0
  4  1  1  0  0  0  0
  3  1  1  0  0  0  0
  5  1  1  0  0  0  0
  6  1  1  0  0  0  0
  7  8  1  0  0  0  0
  8  9  1  0  0  0  0
  9 10  1  0  0  0  0
 10 11  1  0  0  0  0
 11 12  1  0  0  0  0
 12 13  1  0  0  0  0
 13 14  1  0  0  0  0
 14  7  1  0  0  0  0
  7  1  1  0  0  0  0
 11  1  1  0  0  0  0
 12  1  1  0  0  0  0
  8  1  1  0  0  0  0
M  END
> <NMREDATA_VERSION>
1.1

> <NMREDATA_LEVEL>
0

> <NMREDATA_SOLVENT>
C6D6

> <NMREDATA_TEMPERATURE>
300

> <NMREDATA_FORMULA>
C13H17Rh

> <NMREDATA_SMILES>
C1CC2[Rh]345678(C1C3CCC24)C1C7C6C5C81

> <NMREDATA_ASSIGNMENT>
Rh1, -785.00, 1

> <NMREDATA_1D_103Rh>
-785.00, L=Rh1

$$$$
LaurenceCarlton-2008_00175.mol
  ChemDraw08202412172D

M  V30 COUNTS 10 14 0 0 0
 -0.219416  0.009263  0.000000 Rh   0  0  0  0  0  0  0
  0.563667 -0.611043  0.000000 C    0  0  0  0  0  0  0
  1.317342 -0.275457  0.000000 C    0  0  0  0  0  0  0
  0.649890 -1.431525  0.000000 C    0  0  0  0  0  0  0
  1.869416 -0.888569  0.000000 C    0  0  0  0  0  0  0
  1.456911 -1.603041  0.000000 C    0  0  0  0  0  0  0
 -0.432942  0.806152  0.000000 C    0  0  0  0  0  0  0
 -1.044416  0.009263  0.000000 C    0  0  0  0  0  0  0
 -0.646468  1.603041  0.000000 O    0  0  0  0  0  0  0
 -1.869416  0.009263  0.000000 O    0  0  0  0  0  0  0
  2  3  1  0  0  0  0
  2  4  1  0  0  0  0
  3  5  1  0  0  0  0
  4  6  1  0  0  0  0
  5  6  1  0  0  0  0
  2  1  1  0  0  0  0
  4  1  1  0  0  0  0
  3  1  1  0  0  0  0
  5  1  1  0  0  0  0
  6  1  1  0  0  0  0
  1  7  1  0  0  0  0
  1  8  1  0  0  0  0
  7  9  3  0  0  0  0
  8 10  3  0  0  0  0
M  END
> <NMREDATA_VERSION>
1.1

> <NMREDATA_LEVEL>
0

> <NMREDATA_SOLVENT>
C6D6

> <NMREDATA_TEMPERATURE>
300

> <NMREDATA_FORMULA>
C7H5O2Rh

> <NMREDATA_SMILES>
[O]#C[Rh]1234(C#[O])C5C3C2C1C45

> <NMREDATA_ASSIGNMENT>
Rh1, -1321.00, 1

> <NMREDATA_1D_103Rh>
-1321.00, L=Rh1

$$$$
LaurenceCarlton-2008_00178.mol
  ChemDraw08202412202D

 17 24  0  0  0  0  0  0  0  0999 V2000
   -1.2434    0.1285    0.0000 C    0  0  0  0  0  0  0  0  0  0  0  0
   -1.6459    0.8258    0.0000 C    0  0  0  0  0  0  0  0  0  0  0  0
   -1.2434    1.5229    0.0000 C    0  0  0  0  0  0  0  0  0  0  0  0
   -0.4184    1.5229    0.0000 C    0  0  0  0  0  0  0  0  0  0  0  0
   -0.4383    0.1285    0.0000 Rh   0  0  0  0  0  0  0  0  0  0  0  0
    0.3447   -0.4918    0.0000 C    0  0  0  0  0  0  0  0  0  0  0  0
    1.0984   -0.1562    0.0000 C    0  0  0  0  0  0  0  0  0  0  0  0
    0.4309   -1.3122    0.0000 C    0  0  0  0  0  0  0  0  0  0  0  0
    1.6504   -0.7693    0.0000 C    0  0  0  0  0  0  0  0  0  0  0  0
    1.2379   -1.4837    0.0000 C    0  0  0  0  0  0  0  0  0  0  0  0
   -1.6558    2.2374    0.0000 C    0  0  0  0  0  0  0  0  0  0  0  0
   -2.4709    0.8258    0.0000 C    0  0  0  0  0  0  0  0  0  0  0  0
    2.4709   -0.6830    0.0000 C    0  0  0  0  0  0  0  0  0  0  0  0
    1.5014    0.5636    0.0000 C    0  0  0  0  0  0  0  0  0  0  0  0
    1.5735   -2.2374    0.0000 C    0  0  0  0  0  0  0  0  0  0  0  0
   -0.0475   -1.9843    0.0000 C    0  0  0  0  0  0  0  0  0  0  0  0
   -0.3782   -0.8893    0.0000 C    0  0  0  0  0  0  0  0  0  0  0  0
  1  2  1  0  0
  2  3  1  0  0
  3  4  1  0  0
  1  5  1  0  0
  6  7  1  0  0
  6  8  1  0  0
  7  9  1  0  0
  8 10  1  0  0
  9 10  1  0  0
  2  5  1  0  0
  3  5  1  0  0
  4  5  1  0  0
  6  5  1  0  0
  8  5  1  0  0
  7  5  1  0  0
  9  5  1  0  0
 10  5  1  0  0
  3 11  1  0  0
  2 12  1  0  0
  9 13  1  0  0
  7 14  1  0  0
 10 15  1  0  0
  8 16  1  0  0
  6 17  1  0  0
M  END
> <NMREDATA_VERSION>
1.1

> <NMREDATA_LEVEL>
0

> <NMREDATA_SOLVENT>
C6D6

> <NMREDATA_TEMPERATURE>
296

> <NMREDATA_FORMULA>
C16H25Rh

> <NMREDATA_SMILES>
CC12C[Rh]345672(C1(C)C3)C1(C6(C5(C4(C71C)C)C)C)C

> <NMREDATA_ASSIGNMENT>
Rh5, -1004.00, 5

> <NMREDATA_1D_103Rh>
-1004.00, L=Rh5

$$$$

  ACD/LABS02222414112D

 11 11  0  0  0  0  0  0  0  0  1 V2000
   13.2117   -8.8610    0.0000 C    0  0  0  0  0  0  0  0  0  0  0  0
   14.4267   -8.3200    0.0000 C    0  0  0  0  0  0  0  0  0  0  0  0
   13.3507  -10.1837    0.0000 C    0  0  0  0  0  0  0  0  0  0  0  0
   15.3167   -9.3084    0.0000 C    0  0  0  0  0  0  0  0  0  0  0  0
   14.6517  -10.4602    0.0000 C    0  0  0  0  0  0  0  0  0  0  0  0
   15.7277  -11.2420    0.0000 C    0  0  0  0  0  0  0  0  0  0  0  0
   14.5126  -11.7830    0.0000 Rh   0  0  0  0  0  0  0  0  0  0  0  0
   15.5886  -12.5647    0.0000 C    0  0  0  0  0  0  0  0  0  0  0  0
   13.2976  -12.3239    0.0000 C    0  0  0  0  0  0  0  0  0  0  0  0
   16.6646  -13.3465    0.0000 O    0  0  0  0  0  0  0  0  0  0  0  0
   12.0826  -12.8649    0.0000 O    0  0  0  0  0  0  0  0  0  0  0  0
  1  2  1  0  0  0  0
  1  3  2  0  0  0  0
  2  4  2  0  0  0  0
  3  5  1  0  0  0  0
  4  5  1  0  0  0  0
  5  6  1  0  0  0  0
  5  7  1  0  0  0  0
  7  8  1  0  0  0  0
  7  9  1  0  0  0  0
  8 10  3  0  0  0  0
  9 11  3  0  0  0  0
M  END
> <NMREDATA_VERSION>
1.1

> <NMREDATA_LEVEL>
0

> <NMREDATA_SOLVENT>
C6D6

> <NMREDATA_TEMPERATURE>
298

> <NMREDATA_FORMULA>
C8H7O2Rh

> <NMREDATA_SMILES>
[O]#C[Rh](C1(C)C=CC=C1)C#[O]

> <NMREDATA_ASSIGNMENT>
Rh7, -1310.00, 7

> <NMREDATA_1D_103Rh>
-1310.00, L=Rh7

$$$$

  ACD/LABS02222414122D

 14 14  0  0  0  0  0  0  0  0  1 V2000
   13.9036   -8.8610    0.0000 C    0  0  0  0  0  0  0  0  0  0  0  0
   15.1186   -8.3200    0.0000 C    0  0  0  0  0  0  0  0  0  0  0  0
   14.0426  -10.1837    0.0000 C    0  0  0  0  0  0  0  0  0  0  0  0
   16.0085   -9.3084    0.0000 C    0  0  0  0  0  0  0  0  0  0  0  0
   15.3435  -10.4602    0.0000 C    0  0  0  0  0  0  0  0  0  0  0  0
   16.4195  -11.2420    0.0000 Si   0  0  0  0  0  0  0  0  0  0  0  0
   15.2045  -11.7830    0.0000 Rh   0  0  0  0  0  0  0  0  0  0  0  0
   16.2805  -12.5647    0.0000 C    0  0  0  0  0  0  0  0  0  0  0  0
   13.9895  -12.3239    0.0000 C    0  0  0  0  0  0  0  0  0  0  0  0
   17.3565  -13.3465    0.0000 O    0  0  0  0  0  0  0  0  0  0  0  0
   12.7745  -12.8649    0.0000 O    0  0  0  0  0  0  0  0  0  0  0  0
   17.2013  -10.1660    0.0000 C    0  0  0  0  0  0  0  0  0  0  0  0
   15.6378  -12.3180    0.0000 C    0  0  0  0  0  0  0  0  0  0  0  0
   17.4955  -12.0238    0.0000 C    0  0  0  0  0  0  0  0  0  0  0  0
  1  2  1  0  0  0  0
  1  3  2  0  0  0  0
  2  4  2  0  0  0  0
  3  5  1  0  0  0  0
  4  5  1  0  0  0  0
  5  6  1  0  0  0  0
  5  7  1  0  0  0  0
  7  8  1  0  0  0  0
  7  9  1  0  0  0  0
  8 10  3  0  0  0  0
  9 11  3  0  0  0  0
  6 12  1  0  0  0  0
  6 13  1  0  0  0  0
  6 14  1  0  0  0  0
M  END
> <NMREDATA_VERSION>
1.1

> <NMREDATA_LEVEL>
0

> <NMREDATA_SOLVENT>
C6D6

> <NMREDATA_TEMPERATURE>
298

> <NMREDATA_FORMULA>
C10H13O2RhSi

> <NMREDATA_SMILES>
[O]#C[Rh](C1(C=CC=C1)[Si](C)(C)C)C#[O]

> <NMREDATA_ASSIGNMENT>
Rh7, -1321.00, 7

> <NMREDATA_1D_103Rh>
-1321.00, L=Rh7

$$$$

  ACD/LABS02222414122D

 17 18  0  0  0  0  0  0  0  0  1 V2000
   12.4135   -8.9508    0.0000 C    0  0  0  0  0  0  0  0  0  0  0  0
   13.0785   -7.7990    0.0000 C    0  0  0  0  0  0  0  0  0  0  0  0
   13.3034   -9.9392    0.0000 C    0  0  0  0  0  0  0  0  0  0  0  0
   14.3794   -8.0756    0.0000 C    0  0  0  0  0  0  0  0  0  0  0  0
   14.5184   -9.3983    0.0000 C    0  0  0  0  0  0  0  0  0  0  0  0
   15.1834  -10.5501    0.0000 Rh   0  0  0  0  0  0  0  0  0  0  0  0
   16.5134  -10.5501    0.0000 C    0  0  0  0  0  0  0  0  0  0  0  0
   14.5184  -11.7019    0.0000 C    0  0  0  0  0  0  0  0  0  0  0  0
   17.8434  -10.5501    0.0000 O    0  0  0  0  0  0  0  0  0  0  0  0
   13.8534  -12.8537    0.0000 O    0  0  0  0  0  0  0  0  0  0  0  0
   15.8484   -9.3983    0.0000 C    0  0  0  0  0  0  0  0  0  0  0  0
   16.8221   -9.3983    0.0000 C    0  0  0  0  0  0  0  0  0  0  0  0
   16.8221   -8.0683    0.0000 C    0  0  0  0  0  0  0  0  0  0  0  0
   17.9739  -10.0633    0.0000 C    0  0  0  0  0  0  0  0  0  0  0  0
   17.9739   -7.4033    0.0000 C    0  0  0  0  0  0  0  0  0  0  0  0
   19.1257   -9.3983    0.0000 C    0  0  0  0  0  0  0  0  0  0  0  0
   19.1257   -8.0683    0.0000 C    0  0  0  0  0  0  0  0  0  0  0  0
  1  2  1  0  0  0  0
  1  3  2  0  0  0  0
  2  4  2  0  0  0  0
  3  5  1  0  0  0  0
  4  5  1  0  0  0  0
  5  6  1  0  0  0  0
  6  7  1  0  0  0  0
  6  8  1  0  0  0  0
  7  9  3  0  0  0  0
  8 10  3  0  0  0  0
  5 11  1  0  0  0  0
 12 13  1  0  0  0  0
 12 14  2  0  0  0  0
 13 15  2  0  0  0  0
 14 16  1  0  0  0  0
 15 17  1  0  0  0  0
 16 17  2  0  0  0  0
 11 12  1  0  0  0  0
M  END
> <NMREDATA_VERSION>
1.1

> <NMREDATA_LEVEL>
0

> <NMREDATA_SOLVENT>
C6D6

> <NMREDATA_TEMPERATURE>
298

> <NMREDATA_FORMULA>
C14H11O2Rh

> <NMREDATA_SMILES>
[O]#C[Rh](C1(C=CC=C1)Cc1ccccc1)C#[O]

> <NMREDATA_ASSIGNMENT>
Rh6, -1278.00, 6

> <NMREDATA_1D_103Rh>
-1278.00, L=Rh6

$$$$

  ACD/LABS02222414132D

 12 12  0  0  0  0  0  0  0  0  1 V2000
   13.9400   -8.1877    0.0000 C    0  0  0  0  0  0  0  0  0  0  0  0
   12.7947   -8.8489    0.0000 C    0  0  0  0  0  0  0  0  0  0  0  0
   14.9281   -9.0828    0.0000 C    0  0  0  0  0  0  0  0  0  0  0  0
   13.0757  -10.1523    0.0000 C    0  0  0  0  0  0  0  0  0  0  0  0
   14.3965  -10.2918    0.0000 C    0  0  0  0  0  0  0  0  0  0  0  0
   15.6019  -10.8357    0.0000 Rh   0  0  0  0  0  0  0  0  0  0  0  0
   15.7488  -12.1549    0.0000 C    0  0  0  0  0  0  0  0  0  0  0  0
   16.6763  -10.0514    0.0000 C    0  0  0  0  0  0  0  0  0  0  0  0
   15.8880  -13.4788    0.0000 O    0  0  0  0  0  0  0  0  0  0  0  0
   17.7505   -9.2672    0.0000 O    0  0  0  0  0  0  0  0  0  0  0  0
   14.2568  -11.6123    0.0000 C    0  0  0  0  0  0  0  0  0  0  0  0
   13.0406  -12.1505    0.0000 O    0  0  0  0  0  0  0  0  0  0  0  0
  1  2  1  0  0  0  0
  1  3  2  0  0  0  0
  2  4  2  0  0  0  0
  3  5  1  0  0  0  0
  4  5  1  0  0  0  0
  5  6  1  0  0  0  0
  6  7  1  0  0  0  0
  6  8  1  0  0  0  0
  7  9  3  0  0  0  0
  8 10  3  0  0  0  0
  5 11  1  0  0  0  0
 11 12  2  0  0  0  0
M  END
> <NMREDATA_VERSION>
1.1

> <NMREDATA_LEVEL>
0

> <NMREDATA_SOLVENT>
C6D6

> <NMREDATA_TEMPERATURE>
298

> <NMREDATA_FORMULA>
C8H5O3Rh

> <NMREDATA_SMILES>
O=CC1(C=CC=C1)[Rh](C#[O])C#[O]

> <NMREDATA_ASSIGNMENT>
Rh6, -1191.00, 6

> <NMREDATA_1D_103Rh>
-1191.00, L=Rh6

$$$$

  ACD/LABS02222414132D

 13 13  0  0  0  0  0  0  0  0  1 V2000
   13.9596   -8.1834    0.0000 C    0  0  0  0  0  0  0  0  0  0  0  0
   12.8125   -8.8457    0.0000 C    0  0  0  0  0  0  0  0  0  0  0  0
   14.9571   -9.0756    0.0000 C    0  0  0  0  0  0  0  0  0  0  0  0
   13.0940  -10.1513    0.0000 C    0  0  0  0  0  0  0  0  0  0  0  0
   14.4168  -10.2909    0.0000 C    0  0  0  0  0  0  0  0  0  0  0  0
   15.6243  -10.8357    0.0000 Rh   0  0  0  0  0  0  0  0  0  0  0  0
   15.7714  -12.1571    0.0000 C    0  0  0  0  0  0  0  0  0  0  0  0
   16.7079  -10.0457    0.0000 C    0  0  0  0  0  0  0  0  0  0  0  0
   15.9108  -13.4831    0.0000 O    0  0  0  0  0  0  0  0  0  0  0  0
   17.7841   -9.2603    0.0000 O    0  0  0  0  0  0  0  0  0  0  0  0
   14.0552  -11.5671    0.0000 C    0  0  0  0  0  0  0  0  0  0  0  0
   14.9769  -12.5235    0.0000 O    0  0  0  0  0  0  0  0  0  0  0  0
   12.7610  -11.9039    0.0000 C    0  0  0  0  0  0  0  0  0  0  0  0
  1  2  1  0  0  0  0
  1  3  2  0  0  0  0
  2  4  2  0  0  0  0
  3  5  1  0  0  0  0
  4  5  1  0  0  0  0
  5  6  1  0  0  0  0
  6  7  1  0  0  0  0
  6  8  1  0  0  0  0
  7  9  3  0  0  0  0
  8 10  3  0  0  0  0
  5 11  1  0  0  0  0
 11 12  2  0  0  0  0
 11 13  1  0  0  0  0
M  END
> <NMREDATA_VERSION>
1.1

> <NMREDATA_LEVEL>
0

> <NMREDATA_SOLVENT>
C6D6

> <NMREDATA_TEMPERATURE>
298

> <NMREDATA_FORMULA>
C9H7O3Rh

> <NMREDATA_SMILES>
[O]#C[Rh](C1(C=CC=C1)C(=O)C)C#[O]

> <NMREDATA_ASSIGNMENT>
Rh6, -1207.00, 6

> <NMREDATA_1D_103Rh>
-1207.00, L=Rh6

$$$$

  ACD/LABS02222414142D

 14 14  0  0  0  0  0  0  0  0  2 V2000
   16.4336   -8.1133    0.0000 C    0  0  0  0  0  0  0  0  0  0  0  0
   15.1001   -8.1133    0.0000 C    0  0  0  0  0  0  0  0  0  0  0  0
   16.8424   -9.3755    0.0000 C    0  0  0  0  0  0  0  0  0  0  0  0
   14.6915   -9.3755    0.0000 C    0  0  0  0  0  0  0  0  0  0  0  0
   15.7669  -10.1579    0.0000 C    0  0  0  0  0  0  0  0  0  0  0  0
   14.6738  -10.9043    0.0000 Rh   0  2  0  0  0  0  0  0  0  0  0  0
   14.5403  -12.2288    0.0000 C    0  0  0  0  0  0  0  0  0  0  0  0
   13.4738  -10.3355    0.0000 C    0  0  0  0  0  0  0  0  0  0  0  0
   14.4071  -13.5532    0.0000 O    0  0  0  0  0  0  0  0  0  0  0  0
   12.2738   -9.7488    0.0000 O    0  0  0  0  0  0  0  0  0  0  0  0
   16.5490  -11.2331    0.0000 C    0  0  0  0  0  0  0  0  0  0  0  0
   15.4735  -12.0154    0.0000 O    0  5  0  0  0  0  0  0  0  0  0  0
   17.6246  -10.4599    0.0000 C    0  0  0  0  0  0  0  0  0  0  0  0
   17.3314  -12.3087    0.0000 O    0  5  0  0  0  0  0  0  0  0  0  0
  1  2  1  0  0  0  0
  1  3  2  0  0  0  0
  2  4  2  0  0  0  0
  3  5  1  0  0  0  0
  4  5  1  0  0  0  0
  5  6  1  0  0  0  0
  6  7  1  0  0  0  0
  6  8  1  0  0  0  0
  7  9  3  0  0  0  0
  8 10  3  0  0  0  0
  5 11  1  0  0  0  0
 11 12  1  0  0  0  0
 11 13  1  0  0  0  0
 11 14  1  0  0  0  0
M  END
> <NMREDATA_VERSION>
1.1

> <NMREDATA_LEVEL>
0

> <NMREDATA_SOLVENT>
C6D6

> <NMREDATA_TEMPERATURE>
298

> <NMREDATA_FORMULA>
C9H9O4Rh

> <NMREDATA_SMILES>
[O]#C[Rh](C1(C=CC=C1)C(O)(O)C)C#[O]

> <NMREDATA_ASSIGNMENT>
Rh6, -1205.00, 6

> <NMREDATA_1D_103Rh>
-1205.00, L=Rh6

$$$$

  ACD/LABS02222414152D

 14 14  0  0  0  0  0  0  0  0  1 V2000
   16.5788   -8.1133    0.0000 C    0  0  0  0  0  0  0  0  0  0  0  0
   15.2453   -8.1133    0.0000 C    0  0  0  0  0  0  0  0  0  0  0  0
   16.9876   -9.3755    0.0000 C    0  0  0  0  0  0  0  0  0  0  0  0
   14.8366   -9.3755    0.0000 C    0  0  0  0  0  0  0  0  0  0  0  0
   15.9120  -10.1579    0.0000 C    0  0  0  0  0  0  0  0  0  0  0  0
   14.8190  -10.9043    0.0000 Rh   0  0  0  0  0  0  0  0  0  0  0  0
   14.6855  -12.2288    0.0000 C    0  0  0  0  0  0  0  0  0  0  0  0
   13.6189  -10.3355    0.0000 C    0  0  0  0  0  0  0  0  0  0  0  0
   14.5522  -13.5532    0.0000 O    0  0  0  0  0  0  0  0  0  0  0  0
   12.4189   -9.7488    0.0000 O    0  0  0  0  0  0  0  0  0  0  0  0
   16.6942  -11.2331    0.0000 C    0  0  0  0  0  0  0  0  0  0  0  0
   15.6186  -12.0154    0.0000 F    0  0  0  0  0  0  0  0  0  0  0  0
   17.7698  -10.4599    0.0000 F    0  0  0  0  0  0  0  0  0  0  0  0
   17.4765  -12.3087    0.0000 F    0  0  0  0  0  0  0  0  0  0  0  0
  1  2  1  0  0  0  0
  1  3  2  0  0  0  0
  2  4  2  0  0  0  0
  3  5  1  0  0  0  0
  4  5  1  0  0  0  0
  5  6  1  0  0  0  0
  6  7  1  0  0  0  0
  6  8  1  0  0  0  0
  7  9  3  0  0  0  0
  8 10  3  0  0  0  0
  5 11  1  0  0  0  0
 11 12  1  0  0  0  0
 11 13  1  0  0  0  0
 11 14  1  0  0  0  0
M  END
> <NMREDATA_VERSION>
1.1

> <NMREDATA_LEVEL>
0

> <NMREDATA_SOLVENT>
C6D6

> <NMREDATA_TEMPERATURE>
298

> <NMREDATA_FORMULA>
C8H4F3O2Rh

> <NMREDATA_SMILES>
[O]#C[Rh](C1(C=CC=C1)C(F)(F)F)C#[O]

> <NMREDATA_ASSIGNMENT>
Rh6, -1220.00, 6

> <NMREDATA_1D_103Rh>
-1220.00, L=Rh6

$$$$

  ACD/LABS02222414152D

 11 11  0  0  0  0  0  0  0  0  1 V2000
   16.5788   -8.1133    0.0000 C    0  0  0  0  0  0  0  0  0  0  0  0
   15.2453   -8.1133    0.0000 C    0  0  0  0  0  0  0  0  0  0  0  0
   16.9876   -9.3755    0.0000 C    0  0  0  0  0  0  0  0  0  0  0  0
   14.8366   -9.3755    0.0000 C    0  0  0  0  0  0  0  0  0  0  0  0
   15.9120  -10.1579    0.0000 C    0  0  0  0  0  0  0  0  0  0  0  0
   14.8190  -10.9043    0.0000 Rh   0  0  0  0  0  0  0  0  0  0  0  0
   14.6855  -12.2288    0.0000 C    0  0  0  0  0  0  0  0  0  0  0  0
   13.6189  -10.3355    0.0000 C    0  0  0  0  0  0  0  0  0  0  0  0
   14.5522  -13.5532    0.0000 O    0  0  0  0  0  0  0  0  0  0  0  0
   12.4189   -9.7488    0.0000 O    0  0  0  0  0  0  0  0  0  0  0  0
   17.2900  -10.7041    0.0000 Cl   0  0  0  0  0  0  0  0  0  0  0  0
  1  2  1  0  0  0  0
  1  3  2  0  0  0  0
  2  4  2  0  0  0  0
  3  5  1  0  0  0  0
  4  5  1  0  0  0  0
  5  6  1  0  0  0  0
  6  7  1  0  0  0  0
  6  8  1  0  0  0  0
  7  9  3  0  0  0  0
  8 10  3  0  0  0  0
  5 11  1  0  0  0  0
M  END
> <NMREDATA_VERSION>
1.1

> <NMREDATA_LEVEL>
0

> <NMREDATA_SOLVENT>
C6D6

> <NMREDATA_TEMPERATURE>
298

> <NMREDATA_FORMULA>
C7H4ClO2Rh

> <NMREDATA_SMILES>
[O]#C[Rh](C1(Cl)C=CC=C1)C#[O]

> <NMREDATA_ASSIGNMENT>
Rh6, -1166.00, 6

> <NMREDATA_1D_103Rh>
-1166.00, L=Rh6

$$$$

  ACD/LABS02222414162D

 13 13  0  0  0  0  0  0  0  0  1 V2000
   13.1353   -8.9311    0.0000 C    0  0  0  0  0  0  0  0  0  0  0  0
   14.4173   -8.5021    0.0000 C    0  0  0  0  0  0  0  0  0  0  0  0
   13.1353  -10.2476    0.0000 C    0  0  0  0  0  0  0  0  0  0  0  0
   15.1208   -9.6372    0.0000 C    0  0  0  0  0  0  0  0  0  0  0  0
   14.3915  -10.7768    0.0000 C    0  0  0  0  0  0  0  0  0  0  0  0
   15.6208  -11.3036    0.0000 Rh   0  0  0  0  0  0  0  0  0  0  0  0
   16.7188  -10.5826    0.0000 C    0  0  0  0  0  0  0  0  0  0  0  0
   15.8617  -12.5788    0.0000 C    0  0  0  0  0  0  0  0  0  0  0  0
   17.8923  -11.1279    0.0000 O    0  0  0  0  0  0  0  0  0  0  0  0
   17.0268  -13.1359    0.0000 O    0  0  0  0  0  0  0  0  0  0  0  0
   13.7065  -11.9131    0.0000 N    0  0  0  0  0  0  0  0  0  0  0  0
   12.3775  -11.9654    0.0000 C    0  0  0  0  0  0  0  0  0  0  0  0
   14.0912  -13.1645    0.0000 C    0  0  0  0  0  0  0  0  0  0  0  0
  1  2  1  0  0  0  0
  1  3  2  0  0  0  0
  2  4  2  0  0  0  0
  3  5  1  0  0  0  0
  4  5  1  0  0  0  0
  5  6  1  0  0  0  0
  6  7  1  0  0  0  0
  6  8  1  0  0  0  0
  7  9  3  0  0  0  0
  8 10  3  0  0  0  0
  5 11  1  0  0  0  0
 11 12  1  0  0  0  0
 11 13  1  0  0  0  0
M  END
> <NMREDATA_VERSION>
1.1

> <NMREDATA_LEVEL>
0

> <NMREDATA_SOLVENT>
C6D6

> <NMREDATA_TEMPERATURE>
298

> <NMREDATA_FORMULA>
C9H10NO2Rh

> <NMREDATA_SMILES>
CN(C1(C=CC=C1)[Rh](C#[O])C#[O])C

> <NMREDATA_ASSIGNMENT>
Rh6, 1248.00, 6

> <NMREDATA_1D_103Rh>
1248.00, L=Rh6

$$$$

  ACD/LABS02222414162D

 13 13  0  0  0  0  0  0  0  0  2 V2000
   13.1353   -8.9311    0.0000 C    0  0  0  0  0  0  0  0  0  0  0  0
   14.4173   -8.5021    0.0000 C    0  0  0  0  0  0  0  0  0  0  0  0
   13.1353  -10.2476    0.0000 C    0  0  0  0  0  0  0  0  0  0  0  0
   15.1208   -9.6372    0.0000 C    0  0  0  0  0  0  0  0  0  0  0  0
   14.3915  -10.7768    0.0000 C    0  0  0  0  0  0  0  0  0  0  0  0
   15.6208  -11.3036    0.0000 Rh   0  0  0  0  0  0  0  0  0  0  0  0
   16.7188  -10.5826    0.0000 C    0  0  0  0  0  0  0  0  0  0  0  0
   15.8617  -12.5788    0.0000 C    0  0  0  0  0  0  0  0  0  0  0  0
   17.8923  -11.1279    0.0000 O    0  0  0  0  0  0  0  0  0  0  0  0
   17.0268  -13.1359    0.0000 O    0  0  0  0  0  0  0  0  0  0  0  0
   13.8854  -11.9677    0.0000 N    0  3  0  0  0  0  0  0  0  0  0  0
   12.6010  -12.1249    0.0000 O    0  5  0  0  0  0  0  0  0  0  0  0
   14.6637  -13.0014    0.0000 O    0  0  0  0  0  0  0  0  0  0  0  0
  1  2  1  0  0  0  0
  1  3  2  0  0  0  0
  2  4  2  0  0  0  0
  3  5  1  0  0  0  0
  4  5  1  0  0  0  0
  5  6  1  0  0  0  0
  6  7  1  0  0  0  0
  6  8  1  0  0  0  0
  7  9  3  0  0  0  0
  8 10  3  0  0  0  0
 11 12  1  0  0  0  0
 11 13  2  0  0  0  0
  5 11  1  0  0  0  0
M  END
> <NMREDATA_VERSION>
1.1

> <NMREDATA_LEVEL>
0

> <NMREDATA_SOLVENT>
C6D6

> <NMREDATA_TEMPERATURE>
298

> <NMREDATA_FORMULA>
C7H6NO4Rh

> <NMREDATA_SMILES>
[O]#C[Rh](C1(C=CC=C1)N(=O)O)C#[O]

> <NMREDATA_ASSIGNMENT>
Rh6, 1117.00, 6

> <NMREDATA_1D_103Rh>
1117.00, L=Rh6

$$$$

  ACD/LABS02222414212D

 22 23  0  0  0  0  0  0  0  0  1 V2000
   18.4607   -7.1106    0.0000 C    0  0  0  0  0  0  0  0  0  0  0  0
   19.8485   -7.9118    0.0000 C    0  0  0  0  0  0  0  0  0  0  0  0
   20.3965   -9.4176    0.0000 C    0  0  0  0  0  0  0  0  0  0  0  0
   19.8485  -10.9234    0.0000 C    0  0  0  0  0  0  0  0  0  0  0  0
   18.4607  -11.7246    0.0000 C    0  0  0  0  0  0  0  0  0  0  0  0
   16.8827  -11.4463    0.0000 C    0  0  0  0  0  0  0  0  0  0  0  0
   15.8527  -10.2188    0.0000 C    0  0  0  0  0  0  0  0  0  0  0  0
   15.8527   -8.6164    0.0000 C    0  0  0  0  0  0  0  0  0  0  0  0
   16.8827   -7.3889    0.0000 C    0  0  0  0  0  0  0  0  0  0  0  0
   16.0815  -12.8340    0.0000 Rh   0  0  0  0  0  0  0  0  0  0  0  0
   16.7332  -14.2979    0.0000 P    0  0  0  0  0  0  0  0  0  0  0  0
   15.5424  -15.3701    0.0000 P    0  0  0  0  0  0  0  0  0  0  0  0
   14.1547  -14.5689    0.0000 C    0  0  0  0  0  0  0  0  0  0  0  0
   14.4878  -13.0015    0.0000 C    0  0  0  0  0  0  0  0  0  0  0  0
   12.6908  -15.2207    0.0000 C    0  0  0  0  0  0  0  0  0  0  0  0
   11.3944  -14.2788    0.0000 C    0  0  0  0  0  0  0  0  0  0  0  0
    9.9306  -14.9306    0.0000 C    0  0  0  0  0  0  0  0  0  0  0  0
    8.6342  -13.9887    0.0000 C    0  0  0  0  0  0  0  0  0  0  0  0
   13.4156  -11.8107    0.0000 C    0  0  0  0  0  0  0  0  0  0  0  0
   11.8482  -12.1439    0.0000 C    0  0  0  0  0  0  0  0  0  0  0  0
   10.7760  -10.9531    0.0000 C    0  0  0  0  0  0  0  0  0  0  0  0
    9.2086  -11.2862    0.0000 C    0  0  0  0  0  0  0  0  0  0  0  0
  1  2  1  0  0  0  0
  2  3  2  0  0  0  0
  3  4  1  0  0  0  0
  4  5  2  0  0  0  0
  5  6  1  0  0  0  0
  6  7  2  0  0  0  0
  7  8  2  0  0  0  0
  8  9  1  0  0  0  0
  9  1  2  0  0  0  0
  6 10  1  0  0  0  0
 10 11  1  0  0  0  0
 11 12  2  0  0  0  0
 12 13  1  0  0  0  0
 13 14  2  0  0  0  0
 10 14  1  0  0  0  0
 13 15  1  0  0  0  0
 15 16  1  0  0  0  0
 16 17  1  0  0  0  0
 17 18  1  0  0  0  0
 14 19  1  0  0  0  0
 19 20  1  0  0  0  0
 20 21  1  0  0  0  0
 21 22  1  0  0  0  0
M  END
> <NMREDATA_VERSION>
1.1

> <NMREDATA_LEVEL>
0

> <NMREDATA_SOLVENT>
toluene-d8

> <NMREDATA_TEMPERATURE>
300

> <NMREDATA_FORMULA>
C19H25P2Rh

> <NMREDATA_SMILES>
CCCCC1=C(CCCC)P=P[Rh]1C1=C=C/C=C\C=C/C=C\1

> <NMREDATA_ASSIGNMENT>
Rh10, -1932.00, 10

> <NMREDATA_1D_103Rh>
-1932.00, L=Rh10

$$$$

  ACD/LABS02232410222D

 14 14  0  0  0  0  0  0  0  0  1 V2000
   17.0429   -7.9866    0.0000 C    0  0  0  0  0  0  0  0  0  0  0  0
   15.8078   -7.2735    0.0000 C    0  0  0  0  0  0  0  0  0  0  0  0
   15.3201   -5.9334    0.0000 C    0  0  0  0  0  0  0  0  0  0  0  0
   15.8078   -4.5933    0.0000 C    0  0  0  0  0  0  0  0  0  0  0  0
   17.0429   -3.8802    0.0000 C    0  0  0  0  0  0  0  0  0  0  0  0
   18.4474   -4.1278    0.0000 C    0  0  0  0  0  0  0  0  0  0  0  0
   19.3641   -5.2203    0.0000 C    0  0  0  0  0  0  0  0  0  0  0  0
   19.3641   -6.6465    0.0000 C    0  0  0  0  0  0  0  0  0  0  0  0
   18.4474   -7.7390    0.0000 C    0  0  0  0  0  0  0  0  0  0  0  0
   13.8939   -5.9334    0.0000 Rh   0  0  0  0  0  0  0  0  0  0  0  0
   13.1808   -4.6983    0.0000 C    0  0  0  0  0  0  0  0  0  0  0  0
   13.1808   -7.1685    0.0000 C    0  0  0  0  0  0  0  0  0  0  0  0
   12.4678   -3.4633    0.0000 O    0  0  0  0  0  0  0  0  0  0  0  0
   12.4678   -8.4036    0.0000 O    0  0  0  0  0  0  0  0  0  0  0  0
  1  2  2  0  0  0  0
  2  3  2  0  0  0  0
  3  4  1  0  0  0  0
  4  5  2  0  0  0  0
  5  6  1  0  0  0  0
  6  7  2  0  0  0  0
  7  8  1  0  0  0  0
  8  9  2  0  0  0  0
  9  1  1  0  0  0  0
  3 10  1  0  0  0  0
 10 11  1  0  0  0  0
 10 12  1  0  0  0  0
 11 13  3  0  0  0  0
 12 14  3  0  0  0  0
M  END
> <NMREDATA_VERSION>
1.1

> <NMREDATA_LEVEL>
0

> <NMREDATA_SOLVENT>
C6D6

> <NMREDATA_TEMPERATURE>
303

> <NMREDATA_FORMULA>
C11H7O2Rh

> <NMREDATA_SMILES>
[O]#C[Rh](C1=C=C/C=C\C=C/C=C\1)C#[O]

> <NMREDATA_ASSIGNMENT>
Rh10, -1038.00, 10

> <NMREDATA_1D_103Rh>
-1038.00, L=Rh10

$$$$

  ACD/LABS02232410232D

 17 17  0  0  0  0  0  0  0  0  2 V2000
   17.0429   -7.9866    0.0000 C    0  0  0  0  0  0  0  0  0  0  0  0
   15.8078   -7.2735    0.0000 C    0  0  0  0  0  0  0  0  0  0  0  0
   15.3201   -5.9334    0.0000 C    0  0  0  0  0  0  0  0  0  0  0  0
   15.8078   -4.5933    0.0000 C    0  0  0  0  0  0  0  0  0  0  0  0
   17.0429   -3.8802    0.0000 C    0  0  0  0  0  0  0  0  0  0  0  0
   18.4474   -4.1278    0.0000 C    0  0  0  0  0  0  0  0  0  0  0  0
   19.3641   -5.2203    0.0000 C    0  0  0  0  0  0  0  0  0  0  0  0
   19.3641   -6.6465    0.0000 C    0  0  0  0  0  0  0  0  0  0  0  0
   18.4474   -7.7390    0.0000 C    0  0  0  0  0  0  0  0  0  0  0  0
   13.8939   -5.9334    0.0000 Rh   0  0  0  0  0  0  0  0  0  0  0  0
   13.1808   -4.6983    0.0000 C    0  0  0  0  0  0  0  0  0  0  0  0
   13.1808   -7.1685    0.0000 C    0  0  0  0  0  0  0  0  0  0  0  0
   12.4678   -3.4633    0.0000 O    0  0  0  0  0  0  0  0  0  0  0  0
   12.4678   -8.4036    0.0000 O    0  0  0  0  0  0  0  0  0  0  0  0
   20.7042   -7.1343    0.0000 N    0  3  0  0  0  0  0  0  0  0  0  0
   20.9519   -8.5387    0.0000 O    0  5  0  0  0  0  0  0  0  0  0  0
   21.7967   -6.2176    0.0000 O    0  0  0  0  0  0  0  0  0  0  0  0
  1  2  2  0  0  0  0
  2  3  2  0  0  0  0
  3  4  1  0  0  0  0
  4  5  2  0  0  0  0
  5  6  1  0  0  0  0
  6  7  2  0  0  0  0
  7  8  1  0  0  0  0
  8  9  2  0  0  0  0
  9  1  1  0  0  0  0
  3 10  1  0  0  0  0
 10 11  1  0  0  0  0
 10 12  1  0  0  0  0
 11 13  3  0  0  0  0
 12 14  3  0  0  0  0
 15 16  1  0  0  0  0
 15 17  2  0  0  0  0
  8 15  1  0  0  0  0
M  END
> <NMREDATA_VERSION>
1.1

> <NMREDATA_LEVEL>
0

> <NMREDATA_SOLVENT>
C6D6

> <NMREDATA_TEMPERATURE>
303

> <NMREDATA_FORMULA>
C11H8NO4Rh

> <NMREDATA_SMILES>
[O]#C[Rh](C1=C=C/C=C(\C=C/C=C\1)/N(=O)O)C#[O]

> <NMREDATA_ASSIGNMENT>
Rh10, -987.00, 10

> <NMREDATA_1D_103Rh>
-987.00, L=Rh10

$$$$

  ACD/LABS02232410542D

 53 59  0  0  0  0  0  0  0  0  2 V2000
   24.0201   -9.0296    0.0000 P    0  5  0  0  0  0  0  0  0  0  0  0
   24.0201   -7.4592    0.0000 F    0  0  0  0  0  0  0  0  0  0  0  0
   25.3801   -8.2444    0.0000 F    0  0  0  0  0  0  0  0  0  0  0  0
   25.3801   -9.8148    0.0000 F    0  0  0  0  0  0  0  0  0  0  0  0
   22.6602   -9.8148    0.0000 F    0  0  0  0  0  0  0  0  0  0  0  0
   22.6602   -8.2444    0.0000 F    0  0  0  0  0  0  0  0  0  0  0  0
   24.0201  -10.5999    0.0000 F    0  0  0  0  0  0  0  0  0  0  0  0
    8.1116   -5.3500    0.0000 C    0  0  0  0  0  0  0  0  0  0  0  0
    8.2310   -4.0322    0.0000 C    0  0  0  0  0  0  0  0  0  0  0  0
   10.8036   -4.6046    0.0000 C    0  0  0  0  0  0  0  0  0  0  0  0
   12.8378   -2.8978    0.0000 C    0  0  0  0  0  0  0  0  0  0  0  0
   13.6857   -3.9233    0.0000 C    0  0  0  0  0  0  0  0  0  0  0  0
   10.6884   -5.9303    0.0000 C    0  0  0  0  0  0  0  0  0  0  0  0
   11.8757   -7.0467    0.0000 C    0  0  0  0  0  0  0  0  0  0  0  0
   10.9131   -7.2235    0.0000 C    0  0  0  0  0  0  0  0  0  0  0  0
    9.7609   -6.5579    0.0000 C    0  0  0  0  0  0  0  0  0  0  0  0
   10.9088   -8.5461    0.0000 C    0  0  0  0  0  0  0  0  0  0  0  0
    8.6094   -7.2227    0.0000 C    0  0  0  0  0  0  0  0  0  0  0  0
    9.7573   -9.2109    0.0000 C    0  0  0  0  0  0  0  0  0  0  0  0
    8.6098   -8.5533    0.0000 C    0  0  0  0  0  0  0  0  0  0  0  0
   13.0776  -10.0685    0.0000 C    0  0  0  0  0  0  0  0  0  0  0  0
   14.3249   -9.6042    0.0000 C    0  0  0  0  0  0  0  0  0  0  0  0
   12.8503  -11.3768    0.0000 C    0  0  0  0  0  0  0  0  0  0  0  0
   15.3492  -10.4561    0.0000 C    0  0  0  0  0  0  0  0  0  0  0  0
   13.8747  -12.2291    0.0000 C    0  0  0  0  0  0  0  0  0  0  0  0
   15.1218  -11.7649    0.0000 C    0  0  0  0  0  0  0  0  0  0  0  0
   12.7267   -8.0596    0.0000 Rh   0  3  0  0  0  0  0  0  0  0  0  0
   15.2338   -6.6225    0.0000 P    0  0  0  0  0  0  0  0  0  0  0  0
   12.0610   -9.2118    0.0000 P    0  0  0  0  0  0  0  0  0  0  0  0
   17.7779   -9.6991    0.0000 C    0  0  0  0  0  0  0  0  0  0  0  0
   16.4649   -9.9247    0.0000 C    0  0  0  0  0  0  0  0  0  0  0  0
   18.2355   -8.4522    0.0000 C    0  0  0  0  0  0  0  0  0  0  0  0
   15.6167   -8.8994    0.0000 C    0  0  0  0  0  0  0  0  0  0  0  0
   17.3916   -7.4344    0.0000 C    0  0  0  0  0  0  0  0  0  0  0  0
   16.0819   -7.6478    0.0000 C    0  0  0  0  0  0  0  0  0  0  0  0
   14.9859   -3.2137    0.0000 C    0  0  0  0  0  0  0  0  0  0  0  0
   13.6806   -2.9743    0.0000 C    0  0  0  0  0  0  0  0  0  0  0  0
   15.4423   -4.4652    0.0000 C    0  0  0  0  0  0  0  0  0  0  0  0
   12.8238   -3.9909    0.0000 C    0  0  0  0  0  0  0  0  0  0  0  0
   14.5812   -5.4743    0.0000 C    0  0  0  0  0  0  0  0  0  0  0  0
   13.2729   -5.2470    0.0000 C    0  0  0  0  0  0  0  0  0  0  0  0
   16.3900   -5.9653    0.0000 C    0  0  0  0  0  0  0  0  0  0  0  0
   17.5345   -6.6355    0.0000 C    0  0  0  0  0  0  0  0  0  0  0  0
   16.3986   -4.6502    0.0000 C    0  0  0  0  0  0  0  0  0  0  0  0
   18.6906   -5.9780    0.0000 C    0  0  0  0  0  0  0  0  0  0  0  0
   17.5504   -3.9852    0.0000 C    0  0  0  0  0  0  0  0  0  0  0  0
   18.7021   -4.6507    0.0000 C    0  0  0  0  0  0  0  0  0  0  0  0
   11.3953  -10.3640    0.0000 C    0  0  0  0  0  0  0  0  0  0  0  0
   12.0603  -11.5158    0.0000 C    0  0  0  0  0  0  0  0  0  0  0  0
   10.0646  -10.3644    0.0000 C    0  0  0  0  0  0  0  0  0  0  0  0
   11.3946  -12.6680    0.0000 C    0  0  0  0  0  0  0  0  0  0  0  0
    9.3993  -11.5164    0.0000 C    0  0  0  0  0  0  0  0  0  0  0  0
   10.0643  -12.6682    0.0000 C    0  0  0  0  0  0  0  0  0  0  0  0
  1  2  1  0  0  0  0
  1  3  1  0  0  0  0
  1  4  1  0  0  0  0
  1  5  1  0  0  0  0
  1  6  1  0  0  0  0
  1  7  1  0  0  0  0
  8  9  2  0  0  0  0
  9 10  1  0  0  0  0
 10 11  1  0  0  0  0
 11 12  2  0  0  0  0
  8 13  1  0  0  0  0
 13 12  1  0  0  0  0
 13 14  1  0  0  0  0
 14 10  1  0  0  0  0
 15 16  1  0  0  0  0
 15 17  2  0  0  0  0
 16 18  2  0  0  0  0
 17 19  1  0  0  0  0
 18 20  1  0  0  0  0
 19 20  2  0  0  0  0
 21 22  1  0  0  0  0
 21 23  2  0  0  0  0
 22 24  2  0  0  0  0
 23 25  1  0  0  0  0
 24 26  1  0  0  0  0
 25 26  2  0  0  0  0
 27 28  1  0  0  0  0
 27 29  1  0  0  0  0
 21 29  1  0  0  0  0
 17 29  1  0  0  0  0
 30 31  1  0  0  0  0
 30 32  2  0  0  0  0
 31 33  2  0  0  0  0
 32 34  1  0  0  0  0
 33 35  1  0  0  0  0
 34 35  2  0  0  0  0
 28 35  1  0  0  0  0
 36 37  1  0  0  0  0
 36 38  2  0  0  0  0
 37 39  2  0  0  0  0
 38 40  1  0  0  0  0
 39 41  1  0  0  0  0
 40 41  2  0  0  0  0
 28 40  1  0  0  0  0
 42 43  1  0  0  0  0
 42 44  2  0  0  0  0
 43 45  2  0  0  0  0
 44 46  1  0  0  0  0
 45 47  1  0  0  0  0
 46 47  2  0  0  0  0
 28 42  1  0  0  0  0
 48 49  1  0  0  0  0
 48 50  2  0  0  0  0
 49 51  2  0  0  0  0
 50 52  1  0  0  0  0
 51 53  1  0  0  0  0
 52 53  2  0  0  0  0
 29 48  1  0  0  0  0
 14 27  1  0  0  0  0
M  END
> <NMREDATA_VERSION>
1.1

> <NMREDATA_LEVEL>
0

> <NMREDATA_SOLVENT>
DCCl3

> <NMREDATA_TEMPERATURE>
298

> <NMREDATA_FORMULA>
C43H39F6P3Rh

> <NMREDATA_SMILES>
C1=CC2C(C1C=C2)[Rh](P(c1ccccc1)(c1ccccc1)c1ccccc1)P(c1ccccc1)(c1ccccc1)c1ccccc1.F[P](F)(F)(F)(F)F

> <NMREDATA_ASSIGNMENT>
Rh27, -4.00, 27

> <NMREDATA_1D_103Rh>
-4.00, L=Rh27

$$$$

  ACD/LABS02232411242D

 41 45  0  0  0  0  0  0  0  0  2 V2000
   24.7860   -7.6833    0.0000 Cl   0  0  0  0  0  0  0  0  0  0  0  0
   21.0114   -5.5040    0.0000 O    0  0  0  0  0  0  0  0  0  0  0  0
   22.6067  -11.4579    0.0000 O    0  0  0  0  0  0  0  0  0  0  0  0
   26.9653   -3.9087    0.0000 O    0  0  0  0  0  0  0  0  0  0  0  0
   28.5606   -9.8626    0.0000 O    0  5  0  0  0  0  0  0  0  0  0  0
   11.5445   -1.5318    0.0000 C    0  0  0  0  0  0  0  0  0  0  0  0
   12.6963   -0.8668    0.0000 C    0  0  0  0  0  0  0  0  0  0  0  0
   11.5445   -2.8618    0.0000 C    0  0  0  0  0  0  0  0  0  0  0  0
   13.8481   -1.5318    0.0000 C    0  0  0  0  0  0  0  0  0  0  0  0
   12.6963   -3.5268    0.0000 C    0  0  0  0  0  0  0  0  0  0  0  0
   13.8481   -2.8618    0.0000 C    0  0  0  0  0  0  0  0  0  0  0  0
   11.5445   -6.8518    0.0000 C    0  0  0  0  0  0  0  0  0  0  0  0
   10.3927   -7.5168    0.0000 C    0  0  0  0  0  0  0  0  0  0  0  0
   11.5445   -5.5218    0.0000 C    0  0  0  0  0  0  0  0  0  0  0  0
    9.2409   -6.8518    0.0000 C    0  0  0  0  0  0  0  0  0  0  0  0
   10.3927   -4.8568    0.0000 C    0  0  0  0  0  0  0  0  0  0  0  0
    9.2409   -5.5218    0.0000 C    0  0  0  0  0  0  0  0  0  0  0  0
   16.9949   -4.0614    0.0000 C    0  0  0  0  0  0  0  0  0  0  0  0
   17.6599   -5.2132    0.0000 C    0  0  0  0  0  0  0  0  0  0  0  0
   15.6649   -4.0614    0.0000 C    0  0  0  0  0  0  0  0  0  0  0  0
   16.9949   -6.3650    0.0000 C    0  0  0  0  0  0  0  0  0  0  0  0
   14.9999   -5.2132    0.0000 C    0  0  0  0  0  0  0  0  0  0  0  0
   15.6649   -6.3650    0.0000 C    0  0  0  0  0  0  0  0  0  0  0  0
   12.3400   -9.8204    0.0000 C    0  0  0  0  0  0  0  0  0  0  0  0
   13.0050   -8.6686    0.0000 C    0  0  0  0  0  0  0  0  0  0  0  0
   13.0050  -10.9723    0.0000 C    0  0  0  0  0  0  0  0  0  0  0  0
   14.3350   -8.6686    0.0000 C    0  0  0  0  0  0  0  0  0  0  0  0
   14.3350  -10.9722    0.0000 C    0  0  0  0  0  0  0  0  0  0  0  0
   15.0000   -9.8204    0.0000 C    0  0  0  0  0  0  0  0  0  0  0  0
   17.3036   -8.2847    0.0000 C    0  0  0  0  0  0  0  0  0  0  0  0
   16.6386   -7.1329    0.0000 C    0  0  0  0  0  0  0  0  0  0  0  0
   17.3036   -5.9810    0.0000 C    0  0  0  0  0  0  0  0  0  0  0  0
   18.6336   -5.9810    0.0000 C    0  0  0  0  0  0  0  0  0  0  0  0
   19.2986   -7.1329    0.0000 C    0  0  0  0  0  0  0  0  0  0  0  0
   18.6336   -8.2847    0.0000 C    0  0  0  0  0  0  0  0  0  0  0  0
   17.3036   -7.5168    0.0000 C    0  0  0  0  0  0  0  0  0  0  0  0
   16.1518   -8.1818    0.0000 Rh   0  3  0  0  0  0  0  0  0  0  0  0
   14.9999   -7.5168    0.0000 P    0  0  0  0  0  0  0  0  0  0  0  0
   13.8481   -6.8518    0.0000 C    0  0  0  0  0  0  0  0  0  0  0  0
   13.8481   -5.5218    0.0000 C    0  0  0  0  0  0  0  0  0  0  0  0
   12.6963   -4.8568    0.0000 P    0  0  0  0  0  0  0  0  0  0  0  0
  1  2  2  0  0  0  0
  1  3  2  0  0  0  0
  1  4  2  0  0  0  0
  1  5  1  0  0  0  0
  6  7  1  0  0  0  0
  6  8  2  0  0  0  0
  7  9  2  0  0  0  0
  8 10  1  0  0  0  0
  9 11  1  0  0  0  0
 10 11  2  0  0  0  0
 12 13  1  0  0  0  0
 12 14  2  0  0  0  0
 13 15  2  0  0  0  0
 14 16  1  0  0  0  0
 15 17  1  0  0  0  0
 16 17  2  0  0  0  0
 18 19  1  0  0  0  0
 18 20  2  0  0  0  0
 19 21  2  0  0  0  0
 20 22  1  0  0  0  0
 21 23  1  0  0  0  0
 22 23  2  0  0  0  0
 24 25  1  0  0  0  0
 24 26  2  0  0  0  0
 25 27  2  0  0  0  0
 26 28  1  0  0  0  0
 27 29  1  0  0  0  0
 28 29  2  0  0  0  0
 30 31  2  0  0  0  0
 31 32  1  0  0  0  0
 32 33  1  0  0  0  0
 33 34  2  0  0  0  0
 34 35  1  0  0  0  0
 35 30  1  0  0  0  0
 35 36  1  0  0  0  0
 36 32  1  0  0  0  0
 37 38  1  0  0  0  0
 38 39  1  0  0  0  0
 36 37  1  0  0  0  0
 40 41  1  0  0  0  0
 39 40  1  0  0  0  0
 27 38  1  0  0  0  0
 23 38  1  0  0  0  0
 14 41  1  0  0  0  0
 10 41  1  0  0  0  0
M  END
> <NMREDATA_VERSION>
1.1

> <NMREDATA_LEVEL>
0

> <NMREDATA_SOLVENT>
CD2Cl2

> <NMREDATA_TEMPERATURE>
298

> <NMREDATA_FORMULA>
C33H33ClO4P2Rh

> <NMREDATA_SMILES>
c1ccc(cc1)P(c1ccccc1)CCP(c1ccccc1)(c1ccccc1)[Rh]C1C2C=CC1C=C2.O[Cl](=O)(=O)=O

> <NMREDATA_ASSIGNMENT>
Rh37, -390.00, 37

> <NMREDATA_1D_103Rh>
-390.00, L=Rh37

$$$$

  ACD/LABS02232411262D

 42 46  0  0  0  0  0  0  0  0  2 V2000
   24.8228   -7.8353    0.0000 Cl   0  0  0  0  0  0  0  0  0  0  0  0
   25.5468   -6.5899    0.0000 O    0  0  0  0  0  0  0  0  0  0  0  0
   26.0682   -8.5497    0.0000 O    0  0  0  0  0  0  0  0  0  0  0  0
   23.5774   -7.1209    0.0000 O    0  0  0  0  0  0  0  0  0  0  0  0
   24.1084   -9.0807    0.0000 O    0  5  0  0  0  0  0  0  0  0  0  0
    8.4943   -8.0829    0.0000 C    0  0  0  0  0  0  0  0  0  0  0  0
    8.4943   -9.4035    0.0000 C    0  0  0  0  0  0  0  0  0  0  0  0
    9.6462   -7.4181    0.0000 C    0  0  0  0  0  0  0  0  0  0  0  0
    9.6462  -10.0683    0.0000 C    0  0  0  0  0  0  0  0  0  0  0  0
   10.7985   -8.0829    0.0000 C    0  0  0  0  0  0  0  0  0  0  0  0
   10.7985   -9.4035    0.0000 C    0  0  0  0  0  0  0  0  0  0  0  0
   10.7985   -5.4238    0.0000 C    0  0  0  0  0  0  0  0  0  0  0  0
   10.7985   -4.0943    0.0000 C    0  0  0  0  0  0  0  0  0  0  0  0
   11.9508   -6.0886    0.0000 C    0  0  0  0  0  0  0  0  0  0  0  0
   11.9508   -3.4295    0.0000 C    0  0  0  0  0  0  0  0  0  0  0  0
   13.1031   -5.4238    0.0000 C    0  0  0  0  0  0  0  0  0  0  0  0
   13.1031   -4.0943    0.0000 C    0  0  0  0  0  0  0  0  0  0  0  0
   11.9508   -7.4181    0.0000 P    0  0  0  0  0  0  0  0  0  0  0  0
   13.1031   -8.0829    0.0000 C    0  0  0  0  0  0  0  0  0  0  0  0
   14.2464   -7.4181    0.0000 C    0  0  0  0  0  0  0  0  0  0  0  0
   19.9986   -5.4238    0.0000 C    0  0  0  0  0  0  0  0  0  0  0  0
   19.9986   -6.7534    0.0000 C    0  0  0  0  0  0  0  0  0  0  0  0
   18.8467   -4.7590    0.0000 C    0  0  0  0  0  0  0  0  0  0  0  0
   18.8467   -7.4181    0.0000 C    0  0  0  0  0  0  0  0  0  0  0  0
   17.6944   -5.4238    0.0000 C    0  0  0  0  0  0  0  0  0  0  0  0
   17.6944   -6.7534    0.0000 C    0  0  0  0  0  0  0  0  0  0  0  0
   15.8773   -3.9702    0.0000 C    0  0  0  0  0  0  0  0  0  0  0  0
   16.5421   -5.1225    0.0000 C    0  0  0  0  0  0  0  0  0  0  0  0
   14.5477   -3.9702    0.0000 C    0  0  0  0  0  0  0  0  0  0  0  0
   15.8773   -6.2748    0.0000 C    0  0  0  0  0  0  0  0  0  0  0  0
   13.8919   -5.1225    0.0000 C    0  0  0  0  0  0  0  0  0  0  0  0
   14.5477   -6.2748    0.0000 C    0  0  0  0  0  0  0  0  0  0  0  0
   13.1387  -12.0270    0.0000 C    0  0  0  0  0  0  0  0  0  0  0  0
   13.4842  -13.3123    0.0000 C    0  0  0  0  0  0  0  0  0  0  0  0
   15.9125  -12.3107    0.0000 C    0  0  0  0  0  0  0  0  0  0  0  0
   18.2085  -13.6402    0.0000 C    0  0  0  0  0  0  0  0  0  0  0  0
   18.8733  -12.4879    0.0000 C    0  0  0  0  0  0  0  0  0  0  0  0
   15.5670  -11.0253    0.0000 C    0  0  0  0  0  0  0  0  0  0  0  0
   16.5421   -9.7134    0.0000 C    0  0  0  0  0  0  0  0  0  0  0  0
   17.2068   -8.5611    0.0000 Rh   0  3  0  0  0  0  0  0  0  0  0  0
   16.5421   -7.4181    0.0000 P    0  0  0  0  0  0  0  0  0  0  0  0
   15.3898   -8.0829    0.0000 C    0  0  0  0  0  0  0  0  0  0  0  0
  1  2  2  0  0  0  0
  1  3  2  0  0  0  0
  1  4  2  0  0  0  0
  1  5  1  0  0  0  0
  6  7  1  0  0  0  0
  6  8  2  0  0  0  0
  7  9  2  0  0  0  0
  8 10  1  0  0  0  0
  9 11  1  0  0  0  0
 10 11  2  0  0  0  0
 12 13  1  0  0  0  0
 12 14  2  0  0  0  0
 13 15  2  0  0  0  0
 14 16  1  0  0  0  0
 15 17  1  0  0  0  0
 16 17  2  0  0  0  0
 14 18  1  0  0  0  0
 10 18  1  0  0  0  0
 18 19  1  0  0  0  0
 19 20  1  0  0  0  0
 21 22  1  0  0  0  0
 21 23  2  0  0  0  0
 22 24  2  0  0  0  0
 23 25  1  0  0  0  0
 24 26  1  0  0  0  0
 25 26  2  0  0  0  0
 27 28  1  0  0  0  0
 27 29  2  0  0  0  0
 28 30  2  0  0  0  0
 29 31  1  0  0  0  0
 30 32  1  0  0  0  0
 31 32  2  0  0  0  0
 33 34  2  0  0  0  0
 34 35  1  0  0  0  0
 35 36  1  0  0  0  0
 36 37  2  0  0  0  0
 37 38  1  0  0  0  0
 38 33  1  0  0  0  0
 38 39  1  0  0  0  0
 39 35  1  0  0  0  0
 40 41  1  0  0  0  0
 41 42  1  0  0  0  0
 39 40  1  0  0  0  0
 30 41  1  0  0  0  0
 26 41  1  0  0  0  0
 20 42  1  0  0  0  0
M  END
> <NMREDATA_VERSION>
1.1

> <NMREDATA_LEVEL>
0

> <NMREDATA_SOLVENT>
CD2Cl2

> <NMREDATA_TEMPERATURE>
298

> <NMREDATA_FORMULA>
C34H35ClO4P2Rh

> <NMREDATA_SMILES>
c1ccc(cc1)P(c1ccccc1)CCCP(c1ccccc1)(c1ccccc1)[Rh]C1C2C=CC1C=C2.O[Cl](=O)(=O)=O

> <NMREDATA_ASSIGNMENT>
Rh40, -264.00, 40

> <NMREDATA_1D_103Rh>
-264.00, L=Rh40

$$$$

  ACD/LABS02232411262D

 43 47  0  0  0  0  0  0  0  0  2 V2000
   24.8228   -7.8353    0.0000 Cl   0  0  0  0  0  0  0  0  0  0  0  0
   25.5468   -6.5899    0.0000 O    0  0  0  0  0  0  0  0  0  0  0  0
   26.0682   -8.5497    0.0000 O    0  0  0  0  0  0  0  0  0  0  0  0
   23.5774   -7.1209    0.0000 O    0  0  0  0  0  0  0  0  0  0  0  0
   24.1084   -9.0807    0.0000 O    0  5  0  0  0  0  0  0  0  0  0  0
    9.0708   -5.1584    0.0000 C    0  0  0  0  0  0  0  0  0  0  0  0
    7.9183   -5.8228    0.0000 C    0  0  0  0  0  0  0  0  0  0  0  0
   10.2229   -5.8228    0.0000 C    0  0  0  0  0  0  0  0  0  0  0  0
    7.9183   -7.1525    0.0000 C    0  0  0  0  0  0  0  0  0  0  0  0
   10.2229   -7.1525    0.0000 C    0  0  0  0  0  0  0  0  0  0  0  0
    9.0708   -7.8170    0.0000 C    0  0  0  0  0  0  0  0  0  0  0  0
   10.2229   -9.8021    0.0000 C    0  0  0  0  0  0  0  0  0  0  0  0
   10.2229  -11.1314    0.0000 C    0  0  0  0  0  0  0  0  0  0  0  0
   11.3750   -9.1372    0.0000 C    0  0  0  0  0  0  0  0  0  0  0  0
   11.3750  -11.7962    0.0000 C    0  0  0  0  0  0  0  0  0  0  0  0
   12.5271   -9.8021    0.0000 C    0  0  0  0  0  0  0  0  0  0  0  0
   12.5271  -11.1314    0.0000 C    0  0  0  0  0  0  0  0  0  0  0  0
   11.3750   -7.8170    0.0000 P    0  0  0  0  0  0  0  0  0  0  0  0
   12.5271   -7.1525    0.0000 C    0  0  0  0  0  0  0  0  0  0  0  0
   13.6793   -7.8170    0.0000 C    0  0  0  0  0  0  0  0  0  0  0  0
   14.8136   -7.1525    0.0000 C    0  0  0  0  0  0  0  0  0  0  0  0
   20.5746   -5.1584    0.0000 C    0  0  0  0  0  0  0  0  0  0  0  0
   20.5746   -6.4877    0.0000 C    0  0  0  0  0  0  0  0  0  0  0  0
   19.4221   -4.4935    0.0000 C    0  0  0  0  0  0  0  0  0  0  0  0
   19.4221   -7.1525    0.0000 C    0  0  0  0  0  0  0  0  0  0  0  0
   18.2700   -5.1584    0.0000 C    0  0  0  0  0  0  0  0  0  0  0  0
   18.2700   -6.4877    0.0000 C    0  0  0  0  0  0  0  0  0  0  0  0
   16.4530   -3.7049    0.0000 C    0  0  0  0  0  0  0  0  0  0  0  0
   17.1179   -4.8570    0.0000 C    0  0  0  0  0  0  0  0  0  0  0  0
   15.1237   -3.7049    0.0000 C    0  0  0  0  0  0  0  0  0  0  0  0
   16.4530   -6.0004    0.0000 C    0  0  0  0  0  0  0  0  0  0  0  0
   14.4588   -4.8570    0.0000 C    0  0  0  0  0  0  0  0  0  0  0  0
   15.1237   -6.0004    0.0000 C    0  0  0  0  0  0  0  0  0  0  0  0
   13.7149  -11.7606    0.0000 C    0  0  0  0  0  0  0  0  0  0  0  0
   14.0605  -13.0461    0.0000 C    0  0  0  0  0  0  0  0  0  0  0  0
   16.4886  -12.0355    0.0000 C    0  0  0  0  0  0  0  0  0  0  0  0
   18.7841  -13.3648    0.0000 C    0  0  0  0  0  0  0  0  0  0  0  0
   19.4490  -12.2127    0.0000 C    0  0  0  0  0  0  0  0  0  0  0  0
   16.1429  -10.7592    0.0000 C    0  0  0  0  0  0  0  0  0  0  0  0
   17.1179   -9.4477    0.0000 C    0  0  0  0  0  0  0  0  0  0  0  0
   17.7827   -8.3047    0.0000 Rh   0  3  0  0  0  0  0  0  0  0  0  0
   17.1179   -7.1525    0.0000 P    0  0  0  0  0  0  0  0  0  0  0  0
   15.9657   -7.8170    0.0000 C    0  0  0  0  0  0  0  0  0  0  0  0
  1  2  2  0  0  0  0
  1  3  2  0  0  0  0
  1  4  2  0  0  0  0
  1  5  1  0  0  0  0
  6  7  1  0  0  0  0
  6  8  2  0  0  0  0
  7  9  2  0  0  0  0
  8 10  1  0  0  0  0
  9 11  1  0  0  0  0
 10 11  2  0  0  0  0
 12 13  1  0  0  0  0
 12 14  2  0  0  0  0
 13 15  2  0  0  0  0
 14 16  1  0  0  0  0
 15 17  1  0  0  0  0
 16 17  2  0  0  0  0
 14 18  1  0  0  0  0
 10 18  1  0  0  0  0
 18 19  1  0  0  0  0
 19 20  1  0  0  0  0
 22 23  1  0  0  0  0
 22 24  2  0  0  0  0
 23 25  2  0  0  0  0
 24 26  1  0  0  0  0
 25 27  1  0  0  0  0
 26 27  2  0  0  0  0
 28 29  1  0  0  0  0
 28 30  2  0  0  0  0
 29 31  2  0  0  0  0
 30 32  1  0  0  0  0
 31 33  1  0  0  0  0
 32 33  2  0  0  0  0
 34 35  2  0  0  0  0
 35 36  1  0  0  0  0
 36 37  1  0  0  0  0
 37 38  2  0  0  0  0
 38 39  1  0  0  0  0
 39 34  1  0  0  0  0
 39 40  1  0  0  0  0
 40 36  1  0  0  0  0
 41 42  1  0  0  0  0
 42 43  1  0  0  0  0
 40 41  1  0  0  0  0
 31 42  1  0  0  0  0
 27 42  1  0  0  0  0
 21 43  1  0  0  0  0
 20 21  1  0  0  0  0
M  END
> <NMREDATA_VERSION>
1.1

> <NMREDATA_LEVEL>
0

> <NMREDATA_SOLVENT>
CD2Cl2

> <NMREDATA_TEMPERATURE>
298

> <NMREDATA_FORMULA>
C35H37ClO4P2Rh

> <NMREDATA_SMILES>
c1ccc(cc1)P(c1ccccc1)CCCCP(c1ccccc1)(c1ccccc1)[Rh]C1C2C=CC1C=C2.O[Cl](=O)(=O)=O

> <NMREDATA_ASSIGNMENT>
Rh41, -210.00, 41

> <NMREDATA_1D_103Rh>
-210.00, L=Rh41

$$$$

  ACD/LABS02232411462D

 43 47  0  0  0  0  0  0  0  0  2 V2000
   26.3757   -7.6364    0.0000 F    0  0  0  0  0  0  0  0  0  0  0  0
   27.0968   -8.8854    0.0000 B    0  5  0  0  0  0  0  0  0  0  0  0
   28.3457   -8.1643    0.0000 F    0  0  0  0  0  0  0  0  0  0  0  0
   25.8478   -9.6064    0.0000 F    0  0  0  0  0  0  0  0  0  0  0  0
   27.8178  -10.1343    0.0000 F    0  0  0  0  0  0  0  0  0  0  0  0
   10.8172  -12.7734    0.0000 C    0  0  0  0  0  0  0  0  0  0  0  0
   11.2561  -13.2100    0.0000 C    0  0  0  0  0  0  0  0  0  0  0  0
   12.0100  -12.2333    0.0000 C    0  0  0  0  0  0  0  0  0  0  0  0
   13.2519  -12.2350    0.0000 C    0  0  0  0  0  0  0  0  0  0  0  0
   13.2517  -11.6121    0.0000 C    0  0  0  0  0  0  0  0  0  0  0  0
   11.5711  -11.7967    0.0000 C    0  0  0  0  0  0  0  0  0  0  0  0
   11.6592  -11.0366    0.0000 C    0  0  0  0  0  0  0  0  0  0  0  0
   22.9959  -17.3790    0.0000 C    0  0  0  0  0  0  0  0  0  0  0  0
   23.8582  -16.3756    0.0000 C    0  0  0  0  0  0  0  0  0  0  0  0
   21.6888  -17.1286    0.0000 C    0  0  0  0  0  0  0  0  0  0  0  0
   23.4221  -15.1191    0.0000 C    0  0  0  0  0  0  0  0  0  0  0  0
   21.2526  -15.8722    0.0000 C    0  0  0  0  0  0  0  0  0  0  0  0
   22.1235  -14.8658    0.0000 C    0  0  0  0  0  0  0  0  0  0  0  0
   22.1136  -11.3498    0.0000 C    0  0  0  0  0  0  0  0  0  0  0  0
   22.9876  -10.3523    0.0000 C    0  0  0  0  0  0  0  0  0  0  0  0
   22.5498  -12.6062    0.0000 C    0  0  0  0  0  0  0  0  0  0  0  0
   24.2916  -10.5937    0.0000 C    0  0  0  0  0  0  0  0  0  0  0  0
   23.8568  -12.8562    0.0000 C    0  0  0  0  0  0  0  0  0  0  0  0
   24.7277  -11.8502    0.0000 C    0  0  0  0  0  0  0  0  0  0  0  0
   16.3998   -6.8664    0.0000 C    0  0  0  0  0  0  0  0  0  0  0  0
   16.1494   -8.1736    0.0000 C    0  0  0  0  0  0  0  0  0  0  0  0
   17.6562   -6.4303    0.0000 C    0  0  0  0  0  0  0  0  0  0  0  0
   17.1558   -9.0444    0.0000 C    0  0  0  0  0  0  0  0  0  0  0  0
   18.6537   -7.3042    0.0000 C    0  0  0  0  0  0  0  0  0  0  0  0
   18.4123   -8.6083    0.0000 C    0  0  0  0  0  0  0  0  0  0  0  0
   17.6615  -12.5296    0.0000 C    0  0  0  0  0  0  0  0  0  0  0  0
   17.4083  -13.8276    0.0000 C    0  0  0  0  0  0  0  0  0  0  0  0
   16.6554  -11.6586    0.0000 C    0  0  0  0  0  0  0  0  0  0  0  0
   16.1519  -14.2638    0.0000 C    0  0  0  0  0  0  0  0  0  0  0  0
   15.3989  -12.0947    0.0000 C    0  0  0  0  0  0  0  0  0  0  0  0
   15.1486  -13.4019    0.0000 C    0  0  0  0  0  0  0  0  0  0  0  0
   13.1388   -9.6305    0.0000 Rh   0  3  0  0  0  0  0  0  0  0  0  0
   16.9054  -10.3516    0.0000 P    0  0  0  0  0  0  0  0  0  0  0  0
   18.2126  -10.6020    0.0000 C    0  0  0  0  0  0  0  0  0  0  0  0
   18.6487  -11.8584    0.0000 C    0  0  0  0  0  0  0  0  0  0  0  0
   19.9442  -12.1028    0.0000 C    0  0  0  0  0  0  0  0  0  0  0  0
   20.3803  -13.3593    0.0000 C    0  0  0  0  0  0  0  0  0  0  0  0
   21.6873  -13.6093    0.0000 P    0  0  0  0  0  0  0  0  0  0  0  0
  1  2  1  0  0  0  0
  2  3  1  0  0  0  0
  2  4  1  0  0  0  0
  2  5  1  0  0  0  0
  6  7  2  0  0  0  0
  7  8  1  0  0  0  0
  8  9  1  0  0  0  0
  9 10  2  0  0  0  0
 10 11  1  0  0  0  0
 11  6  1  0  0  0  0
 11 12  1  0  0  0  0
 12  8  1  0  0  0  0
 13 14  1  0  0  0  0
 13 15  2  0  0  0  0
 14 16  2  0  0  0  0
 15 17  1  0  0  0  0
 16 18  1  0  0  0  0
 17 18  2  0  0  0  0
 19 20  1  0  0  0  0
 19 21  2  0  0  0  0
 20 22  2  0  0  0  0
 21 23  1  0  0  0  0
 22 24  1  0  0  0  0
 23 24  2  0  0  0  0
 25 26  1  0  0  0  0
 25 27  2  0  0  0  0
 26 28  2  0  0  0  0
 27 29  1  0  0  0  0
 28 30  1  0  0  0  0
 29 30  2  0  0  0  0
 31 32  1  0  0  0  0
 31 33  2  0  0  0  0
 32 34  2  0  0  0  0
 33 35  1  0  0  0  0
 34 36  1  0  0  0  0
 35 36  2  0  0  0  0
 37 38  1  0  0  0  0
 33 38  1  0  0  0  0
 28 38  1  0  0  0  0
 38 39  1  0  0  0  0
 39 40  1  0  0  0  0
 40 41  1  0  0  0  0
 41 42  1  0  0  0  0
 42 43  1  0  0  0  0
 21 43  1  0  0  0  0
 18 43  1  0  0  0  0
 12 37  1  0  0  0  0
M  END
> <NMREDATA_VERSION>
1.1

> <NMREDATA_LEVEL>
0

> <NMREDATA_SOLVENT>
CD3OD

> <NMREDATA_TEMPERATURE>
298

> <NMREDATA_FORMULA>
C35H36BF4P2Rh

> <NMREDATA_SMILES>
c1ccc(cc1)P(c1ccccc1)CCCCP(c1ccccc1)(c1ccccc1)[Rh]C1C2C=CC1C=C2.F[B](F)(F)F

> <NMREDATA_ASSIGNMENT>
Rh37, -210.00, 37

> <NMREDATA_1D_103Rh>
-210.00, L=Rh37

$$$$
LaurenceCarlton-2008_00247.mol
  ChemDraw08142417162D

M  V30 COUNTS 45 53 0 0 0
 -4.732906 -3.542383  0.000000 B    0  5  0  0  0  0  0
 -5.224927 -2.690213  0.000000 F    0  0  0  0  0  0  0
 -3.880674 -3.050360  0.000000 F    0  0  0  0  0  0  0
 -5.585075 -4.034405  0.000000 F    0  0  0  0  0  0  0
 -4.240883 -4.394614  0.000000 F    0  0  0  0  0  0  0
 -2.142319  1.856050  0.000000 Rh   0  3  0  0  0  0  0
  3.342178  2.998216  0.000000 C    0  0  0  0  0  0  0
  2.535858  2.823648  0.000000 C    0  0  0  0  0  0  0
  3.594724  3.783621  0.000000 C    0  0  0  0  0  0  0
  1.981924  3.434642  0.000000 C    0  0  0  0  0  0  0
  3.040788  4.394614  0.000000 C    0  0  0  0  0  0  0
  2.234308  4.220202  0.000000 C    0  0  0  0  0  0  0
  5.256307  1.950786  0.000000 C    0  0  0  0  0  0  0
  4.702371  2.561779  0.000000 C    0  0  0  0  0  0  0
  6.059031  2.129654  0.000000 C    0  0  0  0  0  0  0
  4.955134  3.347358  0.000000 C    0  0  0  0  0  0  0
  6.315401  2.910871  0.000000 C    0  0  0  0  0  0  0
  5.761466  3.521865  0.000000 C    0  0  0  0  0  0  0
  3.896052  2.387210  0.000000 P    0  0  0  0  0  0  0
  3.643508  1.601805  0.000000 C    0  0  0  0  0  0  0
  4.197442  0.990812  0.000000 C    0  0  0  0  0  0  0
  3.949244  0.217008  0.000000 C    0  0  0  0  0  0  0
  4.999999  1.169581  0.000000 O    0  0  0  0  0  0  0
  3.146687  0.038240  0.000000 O    0  0  0  0  0  0  0
  4.503192 -0.394046  0.000000 C    0  0  0  0  0  0  0
  4.250573 -1.179404  0.000000 P    0  0  0  0  0  0  0
  3.444253 -1.353971  0.000000 C    0  0  0  0  0  0  0
  2.890379 -0.742965  0.000000 C    0  0  0  0  0  0  0
  3.191552 -2.139537  0.000000 C    0  0  0  0  0  0  0
  2.087654 -0.921833  0.000000 C    0  0  0  0  0  0  0
  2.385233 -2.314105  0.000000 C    0  0  0  0  0  0  0
  1.831285 -1.703051  0.000000 C    0  0  0  0  0  0  0
  4.804508 -1.790396  0.000000 C    0  0  0  0  0  0  0
  5.610827 -1.615828  0.000000 C    0  0  0  0  0  0  0
  4.551962 -2.575801  0.000000 C    0  0  0  0  0  0  0
  6.164776 -2.226881  0.000000 C    0  0  0  0  0  0  0
  5.105898 -3.186794  0.000000 C    0  0  0  0  0  0  0
  5.912391 -3.012442  0.000000 C    0  0  0  0  0  0  0
 -5.024511  0.358954  0.000000 C    0  0  0  0  0  0  0
 -4.441119  0.942347  0.000000 C    0  0  0  0  0  0  0
 -5.024511 -0.466047  0.000000 C    0  0  0  0  0  0  0
 -4.441119 -1.049377  0.000000 C    0  0  0  0  0  0  0
 -3.704175  0.358954  0.000000 C    0  0  0  0  0  0  0
 -3.704175 -0.466047  0.000000 C    0  0  0  0  0  0  0
 -6.315401  0.018704  0.000000 C    0  0  0  0  0  0  0
  1  2  1  0  0  0  0
  1  3  1  0  0  0  0
  1  4  1  0  0  0  0
  1  5  1  0  0  0  0
  7  8  1  0  0  0  0
  7  9  2  0  0  0  0
  8 10  2  0  0  0  0
  9 11  1  0  0  0  0
 10 12  1  0  0  0  0
 11 12  2  0  0  0  0
 13 14  1  0  0  0  0
 13 15  2  0  0  0  0
 14 16  2  0  0  0  0
 15 17  1  0  0  0  0
 16 18  1  0  0  0  0
 17 18  2  0  0  0  0
 14 19  1  0  0  0  0
  7 19  1  0  0  0  0
 19 20  1  0  0  0  0
 20 21  1  0  0  0  0
 21 22  1  0  0  0  0
 21 23  1  6  0  0  0
 22 24  1  1  0  0  0
 22 25  1  0  0  0  0
 25 26  1  0  0  0  0
 27 28  1  0  0  0  0
 27 29  2  0  0  0  0
 28 30  2  0  0  0  0
 29 31  1  0  0  0  0
 30 32  1  0  0  0  0
 31 32  2  0  0  0  0
 26 27  1  0  0  0  0
 33 34  1  0  0  0  0
 33 35  2  0  0  0  0
 34 36  2  0  0  0  0
 35 37  1  0  0  0  0
 36 38  1  0  0  0  0
 37 38  2  0  0  0  0
 26 33  1  0  0  0  0
 39 40  1  0  0  0  0
 39 41  1  0  0  0  0
 41 42  1  0  0  0  0
 43 44  1  0  0  0  0
 19  6  1  0  0  0  0
 26  6  1  0  0  0  0
 43  6  1  0  0  0  0
 44  6  1  0  0  0  0
 39  6  1  0  0  0  0
 41  6  1  0  0  0  0
 42 44  1  0  0  0  0
 43 40  1  0  0  0  0
 40 45  1  0  0  0  0
 42 45  1  0  0  0  0
M  END
> <NMREDATA_VERSION>
1.1

> <NMREDATA_LEVEL>
0

> <NMREDATA_SOLVENT>
CD3OD

> <NMREDATA_TEMPERATURE>
297

> <NMREDATA_FORMULA>
C35H38BF4O2P2Rh

> <NMREDATA_SMILES>
F[B](F)(F)F.O[C@@H]1CP(c2ccccc2)(c2ccccc2)[Rh]234(P(C[C@@H]1O)(c1ccccc1)c1ccccc1)C1C4C4C3C2C1C4

> <NMREDATA_ASSIGNMENT>
Rh6, 228.00, 6

> <NMREDATA_1D_103Rh>
228.00, L=Rh6

$$$$
LaurenceCarlton-2008_00248.mol
  ChemDraw08142417122D

M  V30 COUNTS 46 53 0 0 1
 -2.186892 -3.354951  0.000000 B    0  5  0  0  0  0  0
 -2.678914 -2.502781  0.000000 F    0  0  0  0  0  0  0
 -1.334661 -2.862928  0.000000 F    0  0  0  0  0  0  0
 -3.039062 -3.846973  0.000000 F    0  0  0  0  0  0  0
 -1.694870 -4.207182  0.000000 F    0  0  0  0  0  0  0
 -2.452071  1.668618  0.000000 Rh   0  3  0  0  0  0  0
  3.032427  2.810784  0.000000 C    0  0  0  0  0  0  0
  2.226107  2.636217  0.000000 C    0  0  0  0  0  0  0
  3.284972  3.596189  0.000000 C    0  0  0  0  0  0  0
  1.672173  3.247210  0.000000 C    0  0  0  0  0  0  0
  2.731038  4.207182  0.000000 C    0  0  0  0  0  0  0
  1.924558  4.032770  0.000000 C    0  0  0  0  0  0  0
  4.946556  1.763354  0.000000 C    0  0  0  0  0  0  0
  4.392621  2.374347  0.000000 C    0  0  0  0  0  0  0
  5.749281  1.942222  0.000000 C    0  0  0  0  0  0  0
  4.645382  3.159926  0.000000 C    0  0  0  0  0  0  0
  6.005650  2.723439  0.000000 C    0  0  0  0  0  0  0
  5.451715  3.334433  0.000000 C    0  0  0  0  0  0  0
  3.586302  2.199779  0.000000 P    0  0  0  0  0  0  0
  3.333756  1.414373  0.000000 C    0  0  0  0  0  0  0
  3.887690  0.803380  0.000000 C    0  0  0  0  0  0  0
  3.639492  0.029576  0.000000 C    0  0  0  0  0  0  0
  4.690247  0.982149  0.000000 O    0  0  0  0  0  0  0
  2.836937 -0.149192  0.000000 O    0  0  0  0  0  0  0
  4.193441 -0.581478  0.000000 C    0  0  0  0  0  0  0
  3.940822 -1.366836  0.000000 P    0  0  0  0  0  0  0
  3.134502 -1.541403  0.000000 C    0  0  0  0  0  0  0
  2.580628 -0.930397  0.000000 C    0  0  0  0  0  0  0
  2.881802 -2.326969  0.000000 C    0  0  0  0  0  0  0
  1.777903 -1.109265  0.000000 C    0  0  0  0  0  0  0
  2.075481 -2.501537  0.000000 C    0  0  0  0  0  0  0
  1.521534 -1.890483  0.000000 C    0  0  0  0  0  0  0
  4.494756 -1.977828  0.000000 C    0  0  0  0  0  0  0
  5.301076 -1.803260  0.000000 C    0  0  0  0  0  0  0
  4.242212 -2.763233  0.000000 C    0  0  0  0  0  0  0
  5.855024 -2.414313  0.000000 C    0  0  0  0  0  0  0
  4.796146 -3.374226  0.000000 C    0  0  0  0  0  0  0
  5.602639 -3.199874  0.000000 C    0  0  0  0  0  0  0
 -6.005650  0.171522  0.000000 C    0  0  0  0  0  0  0
 -5.422257  0.754915  0.000000 C    0  0  0  0  0  0  0
 -6.005650 -0.653479  0.000000 C    0  0  0  0  0  0  0
 -5.422257 -1.236809  0.000000 C    0  0  0  0  0  0  0
 -4.597319  0.754915  0.000000 C    0  0  0  0  0  0  0
 -4.597319 -1.236809  0.000000 C    0  0  0  0  0  0  0
 -4.013926  0.171522  0.000000 C    0  0  0  0  0  0  0
 -4.013926 -0.653479  0.000000 C    0  0  0  0  0  0  0
  1  2  1  0  0  0  0
  1  3  1  0  0  0  0
  1  4  1  0  0  0  0
  1  5  1  0  0  0  0
  7  8  1  0  0  0  0
  7  9  2  0  0  0  0
  8 10  2  0  0  0  0
  9 11  1  0  0  0  0
 10 12  1  0  0  0  0
 11 12  2  0  0  0  0
 13 14  1  0  0  0  0
 13 15  2  0  0  0  0
 14 16  2  0  0  0  0
 15 17  1  0  0  0  0
 16 18  1  0  0  0  0
 17 18  2  0  0  0  0
 14 19  1  0  0  0  0
  7 19  1  0  0  0  0
 19 20  1  0  0  0  0
 20 21  1  0  0  0  0
 21 22  1  0  0  0  0
 21 23  1  6  0  0  0
 22 24  1  1  0  0  0
 22 25  1  0  0  0  0
 25 26  1  0  0  0  0
 27 28  1  0  0  0  0
 27 29  2  0  0  0  0
 28 30  2  0  0  0  0
 29 31  1  0  0  0  0
 30 32  1  0  0  0  0
 31 32  2  0  0  0  0
 26 27  1  0  0  0  0
 33 34  1  0  0  0  0
 33 35  2  0  0  0  0
 34 36  2  0  0  0  0
 35 37  1  0  0  0  0
 36 38  1  0  0  0  0
 37 38  2  0  0  0  0
 26 33  1  0  0  0  0
 39 40  1  0  0  0  0
 39 41  1  0  0  0  0
 40 43  1  0  0  0  0
 41 42  1  0  0  0  0
 42 44  1  0  0  0  0
 43 45  1  0  0  0  0
 44 46  1  0  0  0  0
 45 46  1  0  0  0  0
 19  6  1  0  0  0  0
 26  6  1  0  0  0  0
 45  6  1  0  0  0  0
 46  6  1  0  0  0  0
 39  6  1  0  0  0  0
 41  6  1  0  0  0  0
M  END
> <NMREDATA_VERSION>
1.1

> <NMREDATA_LEVEL>
0

> <NMREDATA_SOLVENT>
CD3OD

> <NMREDATA_TEMPERATURE>
297

> <NMREDATA_FORMULA>
C36H42BF4O2P2Rh

> <NMREDATA_SMILES>
F[B](F)(F)F.O[C@@H]1CP(c2ccccc2)(c2ccccc2)[Rh]234(P(C[C@@H]1O)(c1ccccc1)c1ccccc1)C1C4CCC2C3CC1

> <NMREDATA_ASSIGNMENT>
Rh6, -57.00, 6

> <NMREDATA_1D_103Rh>
-57.00, L=Rh6

$$$$
LaurenceCarlton-2008_00249.mol
  ChemDraw08142417132D

M  V30 COUNTS 46 53 0 0 1
 -2.186892 -3.354951  0.000000 B    0  5  0  0  0  0  0
 -2.678914 -2.502781  0.000000 F    0  0  0  0  0  0  0
 -1.334661 -2.862928  0.000000 F    0  0  0  0  0  0  0
 -3.039062 -3.846973  0.000000 F    0  0  0  0  0  0  0
 -1.694870 -4.207182  0.000000 F    0  0  0  0  0  0  0
 -2.452071  1.668618  0.000000 Rh   0  3  0  0  0  0  0
  3.032427  2.810784  0.000000 C    0  0  0  0  0  0  0
  2.226107  2.636217  0.000000 C    0  0  0  0  0  0  0
  3.284972  3.596189  0.000000 C    0  0  0  0  0  0  0
  1.672173  3.247210  0.000000 C    0  0  0  0  0  0  0
  2.731038  4.207182  0.000000 C    0  0  0  0  0  0  0
  1.924558  4.032770  0.000000 C    0  0  0  0  0  0  0
  4.946556  1.763354  0.000000 C    0  0  0  0  0  0  0
  4.392621  2.374347  0.000000 C    0  0  0  0  0  0  0
  5.749281  1.942222  0.000000 C    0  0  0  0  0  0  0
  4.645382  3.159926  0.000000 C    0  0  0  0  0  0  0
  6.005650  2.723439  0.000000 C    0  0  0  0  0  0  0
  5.451715  3.334433  0.000000 C    0  0  0  0  0  0  0
  3.586302  2.199779  0.000000 P    0  0  0  0  0  0  0
  3.333756  1.414373  0.000000 C    0  0  0  0  0  0  0
  3.887690  0.803380  0.000000 C    0  0  0  0  0  0  0
  3.639492  0.029576  0.000000 C    0  0  0  0  0  0  0
  4.690247  0.982149  0.000000 O    0  0  0  0  0  0  0
  2.836937 -0.149192  0.000000 O    0  0  0  0  0  0  0
  4.193441 -0.581478  0.000000 C    0  0  0  0  0  0  0
  3.940822 -1.366836  0.000000 P    0  0  0  0  0  0  0
  3.134502 -1.541403  0.000000 C    0  0  0  0  0  0  0
  2.580628 -0.930397  0.000000 C    0  0  0  0  0  0  0
  2.881802 -2.326969  0.000000 C    0  0  0  0  0  0  0
  1.777903 -1.109265  0.000000 C    0  0  0  0  0  0  0
  2.075481 -2.501537  0.000000 C    0  0  0  0  0  0  0
  1.521534 -1.890483  0.000000 C    0  0  0  0  0  0  0
  4.494756 -1.977828  0.000000 C    0  0  0  0  0  0  0
  5.301076 -1.803260  0.000000 C    0  0  0  0  0  0  0
  4.242212 -2.763233  0.000000 C    0  0  0  0  0  0  0
  5.855024 -2.414313  0.000000 C    0  0  0  0  0  0  0
  4.796146 -3.374226  0.000000 C    0  0  0  0  0  0  0
  5.602639 -3.199874  0.000000 C    0  0  0  0  0  0  0
 -6.005650  0.171522  0.000000 C    0  0  0  0  0  0  0
 -5.422257  0.754915  0.000000 C    0  0  0  0  0  0  0
 -6.005650 -0.653479  0.000000 C    0  0  0  0  0  0  0
 -5.422257 -1.236809  0.000000 C    0  0  0  0  0  0  0
 -4.597319  0.754915  0.000000 C    0  0  0  0  0  0  0
 -4.597319 -1.236809  0.000000 C    0  0  0  0  0  0  0
 -4.013926  0.171522  0.000000 C    0  0  0  0  0  0  0
 -4.013926 -0.653479  0.000000 C    0  0  0  0  0  0  0
  1  2  1  0  0  0  0
  1  3  1  0  0  0  0
  1  4  1  0  0  0  0
  1  5  1  0  0  0  0
  7  8  1  0  0  0  0
  7  9  2  0  0  0  0
  8 10  2  0  0  0  0
  9 11  1  0  0  0  0
 10 12  1  0  0  0  0
 11 12  2  0  0  0  0
 13 14  1  0  0  0  0
 13 15  2  0  0  0  0
 14 16  2  0  0  0  0
 15 17  1  0  0  0  0
 16 18  1  0  0  0  0
 17 18  2  0  0  0  0
 14 19  1  0  0  0  0
  7 19  1  0  0  0  0
 19 20  1  0  0  0  0
 20 21  1  0  0  0  0
 21 22  1  0  0  0  0
 21 23  1  6  0  0  0
 22 24  1  1  0  0  0
 22 25  1  0  0  0  0
 25 26  1  0  0  0  0
 27 28  1  0  0  0  0
 27 29  2  0  0  0  0
 28 30  2  0  0  0  0
 29 31  1  0  0  0  0
 30 32  1  0  0  0  0
 31 32  2  0  0  0  0
 26 27  1  0  0  0  0
 33 34  1  0  0  0  0
 33 35  2  0  0  0  0
 34 36  2  0  0  0  0
 35 37  1  0  0  0  0
 36 38  1  0  0  0  0
 37 38  2  0  0  0  0
 26 33  1  0  0  0  0
 39 40  1  0  0  0  0
 39 41  1  0  0  0  0
 40 43  1  0  0  0  0
 41 42  1  0  0  0  0
 42 44  1  0  0  0  0
 43 45  1  0  0  0  0
 44 46  1  0  0  0  0
 45 46  1  0  0  0  0
 19  6  1  0  0  0  0
 26  6  1  0  0  0  0
 45  6  1  0  0  0  0
 46  6  1  0  0  0  0
 39  6  1  0  0  0  0
 41  6  1  0  0  0  0
M  END
> <NMREDATA_VERSION>
1.1

> <NMREDATA_LEVEL>
0

> <NMREDATA_SOLVENT>
CD3OD/CD2Cl2

> <NMREDATA_TEMPERATURE>
185

> <NMREDATA_FORMULA>
C36H42BF4O2P2Rh

> <NMREDATA_SMILES>
F[B](F)(F)F.O[C@@H]1CP(c2ccccc2)(c2ccccc2)[Rh]234(P(C[C@@H]1O)(c1ccccc1)c1ccccc1)C1C4CCC2C3CC1

> <NMREDATA_ASSIGNMENT>
Rh6, -449.00, 6

> <NMREDATA_1D_103Rh>
-449.00, L=Rh6

$$$$
LaurenceCarlton-2008_00250.mol
  ChemDraw08142417172D

 46 53  0  0  1  0  0  0  0  0999 V2000
   -2.1869   -3.3549    0.0000 B    0  5  0  0  0  0  0  0  0  0  0  0
   -2.6789   -2.5028    0.0000 F    0  0  0  0  0  0  0  0  0  0  0  0
   -1.3347   -2.8629    0.0000 F    0  0  0  0  0  0  0  0  0  0  0  0
   -3.0391   -3.8470    0.0000 F    0  0  0  0  0  0  0  0  0  0  0  0
   -1.6949   -4.2072    0.0000 F    0  0  0  0  0  0  0  0  0  0  0  0
   -2.4521    1.6686    0.0000 Rh   0  3  0  0  0  0  0  0  0  0  0  0
    3.0324    2.8108    0.0000 C    0  0  0  0  0  0  0  0  0  0  0  0
    2.2261    2.6362    0.0000 C    0  0  0  0  0  0  0  0  0  0  0  0
    3.2850    3.5962    0.0000 C    0  0  0  0  0  0  0  0  0  0  0  0
    1.6722    3.2472    0.0000 C    0  0  0  0  0  0  0  0  0  0  0  0
    2.7310    4.2072    0.0000 C    0  0  0  0  0  0  0  0  0  0  0  0
    1.9246    4.0328    0.0000 C    0  0  0  0  0  0  0  0  0  0  0  0
    4.9466    1.7634    0.0000 C    0  0  0  0  0  0  0  0  0  0  0  0
    4.3926    2.3743    0.0000 C    0  0  0  0  0  0  0  0  0  0  0  0
    5.7493    1.9422    0.0000 C    0  0  0  0  0  0  0  0  0  0  0  0
    4.6454    3.1599    0.0000 C    0  0  0  0  0  0  0  0  0  0  0  0
    6.0056    2.7234    0.0000 C    0  0  0  0  0  0  0  0  0  0  0  0
    5.4517    3.3344    0.0000 C    0  0  0  0  0  0  0  0  0  0  0  0
    3.5863    2.1998    0.0000 P    0  0  0  0  0  0  0  0  0  0  0  0
    3.3338    1.4144    0.0000 C    0  0  0  0  0  0  0  0  0  0  0  0
    3.8877    0.8034    0.0000 C    0  0  0  0  0  0  0  0  0  0  0  0
    3.6395    0.0296    0.0000 C    0  0  0  0  0  0  0  0  0  0  0  0
    4.6902    0.9821    0.0000 O    0  0  0  0  0  0  0  0  0  0  0  0
    2.8369   -0.1492    0.0000 O    0  0  0  0  0  0  0  0  0  0  0  0
    4.1934   -0.5815    0.0000 C    0  0  0  0  0  0  0  0  0  0  0  0
    3.9408   -1.3668    0.0000 P    0  0  0  0  0  0  0  0  0  0  0  0
    3.1345   -1.5414    0.0000 C    0  0  0  0  0  0  0  0  0  0  0  0
    2.5806   -0.9304    0.0000 C    0  0  0  0  0  0  0  0  0  0  0  0
    2.8818   -2.3270    0.0000 C    0  0  0  0  0  0  0  0  0  0  0  0
    1.7779   -1.1093    0.0000 C    0  0  0  0  0  0  0  0  0  0  0  0
    2.0755   -2.5015    0.0000 C    0  0  0  0  0  0  0  0  0  0  0  0
    1.5215   -1.8905    0.0000 C    0  0  0  0  0  0  0  0  0  0  0  0
    4.4948   -1.9778    0.0000 C    0  0  0  0  0  0  0  0  0  0  0  0
    5.3011   -1.8033    0.0000 C    0  0  0  0  0  0  0  0  0  0  0  0
    4.2422   -2.7632    0.0000 C    0  0  0  0  0  0  0  0  0  0  0  0
    5.8550   -2.4143    0.0000 C    0  0  0  0  0  0  0  0  0  0  0  0
    4.7961   -3.3742    0.0000 C    0  0  0  0  0  0  0  0  0  0  0  0
    5.6026   -3.1999    0.0000 C    0  0  0  0  0  0  0  0  0  0  0  0
   -6.0056    0.1715    0.0000 C    0  0  0  0  0  0  0  0  0  0  0  0
   -5.4223    0.7549    0.0000 C    0  0  0  0  0  0  0  0  0  0  0  0
   -6.0056   -0.6535    0.0000 C    0  0  0  0  0  0  0  0  0  0  0  0
   -5.4223   -1.2368    0.0000 C    0  0  0  0  0  0  0  0  0  0  0  0
   -4.5973    0.7549    0.0000 C    0  0  0  0  0  0  0  0  0  0  0  0
   -4.5973   -1.2368    0.0000 C    0  0  0  0  0  0  0  0  0  0  0  0
   -4.0139    0.1715    0.0000 C    0  0  0  0  0  0  0  0  0  0  0  0
   -4.0139   -0.6535    0.0000 C    0  0  0  0  0  0  0  0  0  0  0  0
  1  2  1  0  0
  1  3  1  0  0
  1  4  1  0  0
  1  5  1  0  0
  7  8  1  0  0
  7  9  2  0  0
  8 10  2  0  0
  9 11  1  0  0
 10 12  1  0  0
 11 12  2  0  0
 13 14  1  0  0
 13 15  2  0  0
 14 16  2  0  0
 15 17  1  0  0
 16 18  1  0  0
 17 18  2  0  0
 14 19  1  0  0
  7 19  1  0  0
 19 20  1  0  0
 20 21  1  0  0
 21 22  1  0  0
 21 23  1  6  0
 22 24  1  1  0
 22 25  1  0  0
 25 26  1  0  0
 27 28  1  0  0
 27 29  2  0  0
 28 30  2  0  0
 29 31  1  0  0
 30 32  1  0  0
 31 32  2  0  0
 26 27  1  0  0
 33 34  1  0  0
 33 35  2  0  0
 34 36  2  0  0
 35 37  1  0  0
 36 38  1  0  0
 37 38  2  0  0
 26 33  1  0  0
 39 40  1  0  0
 39 41  1  0  0
 40 43  1  0  0
 41 42  1  0  0
 42 44  1  0  0
 43 45  1  0  0
 44 46  1  0  0
 45 46  1  0  0
 19  6  1  0  0
 26  6  1  0  0
 45  6  1  0  0
 46  6  1  0  0
 39  6  1  0  0
 41  6  1  0  0
M  END
> <NMREDATA_VERSION>
1.1

> <NMREDATA_LEVEL>
0

> <NMREDATA_SOLVENT>
CD3OD/CD2Cl2

> <NMREDATA_TEMPERATURE>
185

> <NMREDATA_FORMULA>
C36H42BF4O2P2Rh

> <NMREDATA_SMILES>
F[B](F)(F)F.O[C@@H]1CP(c2ccccc2)(c2ccccc2)[Rh]234(P(C[C@@H]1O)(c1ccccc1)c1ccccc1)C1C4CCC2C3CC1

> <NMREDATA_ASSIGNMENT>
Rh6, 25.00, 6

> <NMREDATA_1D_103Rh>
25.00, L=Rh6

$$$$
LaurenceCarlton-2008_00251.mol
  ChemDraw08142417182D

M  V30 COUNTS 41 47 0 0 0
  4.552069  1.320937  0.000000 C    0  0  0  0  0  0  0
  3.741083  1.472601  0.000000 C    0  0  0  0  0  0  0
  4.826181  0.542828  0.000000 C    0  0  0  0  0  0  0
  3.204272  0.846094  0.000000 C    0  0  0  0  0  0  0
  4.289369 -0.083679  0.000000 C    0  0  0  0  0  0  0
  3.478446  0.067986  0.000000 C    0  0  0  0  0  0  0
  3.474725  2.893779  0.000000 C    0  0  0  0  0  0  0
  2.848280  3.430590  0.000000 C    0  0  0  0  0  0  0
  3.323123  2.082856  0.000000 C    0  0  0  0  0  0  0
  2.070170  3.156416  0.000000 C    0  0  0  0  0  0  0
  2.545013  1.808682  0.000000 C    0  0  0  0  0  0  0
  1.918507  2.345493  0.000000 C    0  0  0  0  0  0  0
  1.463576 -0.087339  0.000000 C    0  0  0  0  0  0  0
  1.311973 -0.898324  0.000000 C    0  0  0  0  0  0  0
  2.241684  0.186773  0.000000 C    0  0  0  0  0  0  0
  1.938418 -1.435135  0.000000 C    0  0  0  0  0  0  0
  2.868192 -0.349975  0.000000 C    0  0  0  0  0  0  0
  2.716589 -1.160960  0.000000 C    0  0  0  0  0  0  0
  2.393350  0.997758  0.000000 P    0  0  0  0  0  0  0
 -0.457939  1.152772  0.000000 Rh   0  3  0  0  0  0  0
 -4.162518  1.559072  0.000000 C    0  0  0  0  0  0  0
 -3.579122  2.142468  0.000000 C    0  0  0  0  0  0  0
 -4.162518  0.734067  0.000000 C    0  0  0  0  0  0  0
 -3.579122  0.150795  0.000000 C    0  0  0  0  0  0  0
 -2.754180  2.142468  0.000000 C    0  0  0  0  0  0  0
 -2.754180  0.150795  0.000000 C    0  0  0  0  0  0  0
 -2.170784  1.559072  0.000000 C    0  0  0  0  0  0  0
 -2.170784  0.734067  0.000000 C    0  0  0  0  0  0  0
  0.272096 -0.329381  0.000000 C    0  0  0  0  0  0  0
  0.272096 -1.154385  0.000000 C    0  0  0  0  0  0  0
 -0.442494  0.083121  0.000000 N    0  0  0  0  0  0  0
 -0.442494 -1.566887  0.000000 C    0  0  0  0  0  0  0
 -1.156898 -0.329381  0.000000 C    0  0  0  0  0  0  0
 -1.156898 -1.154385  0.000000 C    0  0  0  0  0  0  0
 -4.128897 -2.625498  0.000000 P    0  5  0  0  0  0  0
 -4.128897 -1.820343  0.000000 F    0  0  0  0  0  0  0
 -3.431676 -2.222920  0.000000 F    0  0  0  0  0  0  0
 -3.431676 -3.028075  0.000000 F    0  0  0  0  0  0  0
 -4.826181 -3.028075  0.000000 F    0  0  0  0  0  0  0
 -4.826181 -2.222920  0.000000 F    0  0  0  0  0  0  0
 -4.128897 -3.430590  0.000000 F    0  0  0  0  0  0  0
  1  2  1  0  0  0  0
  1  3  2  0  0  0  0
  2  4  2  0  0  0  0
  3  5  1  0  0  0  0
  4  6  1  0  0  0  0
  5  6  2  0  0  0  0
  7  8  1  0  0  0  0
  7  9  2  0  0  0  0
  8 10  2  0  0  0  0
  9 11  1  0  0  0  0
 10 12  1  0  0  0  0
 11 12  2  0  0  0  0
 13 14  1  0  0  0  0
 13 15  2  0  0  0  0
 14 16  2  0  0  0  0
 15 17  1  0  0  0  0
 16 18  1  0  0  0  0
 17 18  2  0  0  0  0
 15 19  1  0  0  0  0
 11 19  1  0  0  0  0
  4 19  1  0  0  0  0
 19 20  1  0  0  0  0
 21 22  1  0  0  0  0
 21 23  1  0  0  0  0
 22 25  1  0  0  0  0
 23 24  1  0  0  0  0
 24 26  1  0  0  0  0
 25 27  1  0  0  0  0
 26 28  1  0  0  0  0
 27 28  1  0  0  0  0
 29 30  1  0  0  0  0
 29 31  2  0  0  0  0
 30 32  2  0  0  0  0
 31 33  1  0  0  0  0
 32 34  1  0  0  0  0
 33 34  2  0  0  0  0
 31 20  1  0  0  0  0
 27 20  1  0  0  0  0
 28 20  1  0  0  0  0
 20 21  1  0  0  0  0
 23 20  1  0  0  0  0
 35 36  1  0  0  0  0
 35 37  1  0  0  0  0
 35 38  1  0  0  0  0
 35 39  1  0  0  0  0
 35 40  1  0  0  0  0
 35 41  1  0  0  0  0
M  END
> <NMREDATA_VERSION>
1.1

> <NMREDATA_LEVEL>
0

> <NMREDATA_SOLVENT>
DCCl3

> <NMREDATA_TEMPERATURE>
298

> <NMREDATA_FORMULA>
C31H34F6NP2Rh

> <NMREDATA_SMILES>
C1=CC=N(C=C1)[Rh]123(C4C3CCC1C2CC4)P(c1ccccc1)(c1ccccc1)c1ccccc1.F[P](F)(F)(F)(F)F

> <NMREDATA_ASSIGNMENT>
Rh20, 415.00, 20

> <NMREDATA_1D_103Rh>
415.00, L=Rh20

$$$$
LaurenceCarlton-2008_00252.mol
  ChemDraw08142417182D

M  V30 COUNTS 42 48 0 0 0
  4.552069  1.320937  0.000000 C    0  0  0  0  0  0  0
  3.741083  1.472601  0.000000 C    0  0  0  0  0  0  0
  4.826181  0.542828  0.000000 C    0  0  0  0  0  0  0
  3.204272  0.846094  0.000000 C    0  0  0  0  0  0  0
  4.289369 -0.083679  0.000000 C    0  0  0  0  0  0  0
  3.478446  0.067986  0.000000 C    0  0  0  0  0  0  0
  3.474725  2.893779  0.000000 C    0  0  0  0  0  0  0
  2.848280  3.430590  0.000000 C    0  0  0  0  0  0  0
  3.323123  2.082856  0.000000 C    0  0  0  0  0  0  0
  2.070170  3.156416  0.000000 C    0  0  0  0  0  0  0
  2.545013  1.808682  0.000000 C    0  0  0  0  0  0  0
  1.918507  2.345493  0.000000 C    0  0  0  0  0  0  0
  1.463576 -0.087339  0.000000 C    0  0  0  0  0  0  0
  1.311973 -0.898324  0.000000 C    0  0  0  0  0  0  0
  2.241684  0.186773  0.000000 C    0  0  0  0  0  0  0
  1.938418 -1.435135  0.000000 C    0  0  0  0  0  0  0
  2.868192 -0.349975  0.000000 C    0  0  0  0  0  0  0
  2.716589 -1.160960  0.000000 C    0  0  0  0  0  0  0
  2.393350  0.997758  0.000000 P    0  0  0  0  0  0  0
 -0.457939  1.152772  0.000000 Rh   0  3  0  0  0  0  0
 -4.162518  1.559072  0.000000 C    0  0  0  0  0  0  0
 -3.579122  2.142468  0.000000 C    0  0  0  0  0  0  0
 -4.162518  0.734067  0.000000 C    0  0  0  0  0  0  0
 -3.579122  0.150795  0.000000 C    0  0  0  0  0  0  0
 -2.754180  2.142468  0.000000 C    0  0  0  0  0  0  0
 -2.754180  0.150795  0.000000 C    0  0  0  0  0  0  0
 -2.170784  1.559072  0.000000 C    0  0  0  0  0  0  0
 -2.170784  0.734067  0.000000 C    0  0  0  0  0  0  0
  0.272096 -0.329381  0.000000 C    0  0  0  0  0  0  0
  0.272096 -1.154385  0.000000 C    0  0  0  0  0  0  0
 -0.442494  0.083121  0.000000 N    0  0  0  0  0  0  0
 -0.442494 -1.566887  0.000000 C    0  0  0  0  0  0  0
 -1.156898 -0.329381  0.000000 C    0  0  0  0  0  0  0
 -1.156898 -1.154385  0.000000 C    0  0  0  0  0  0  0
 -0.442540 -2.391887  0.000000 C    0  0  0  0  0  0  0
 -4.128897 -2.625498  0.000000 P    0  5  0  0  0  0  0
 -4.128897 -1.820343  0.000000 F    0  0  0  0  0  0  0
 -3.431676 -2.222920  0.000000 F    0  0  0  0  0  0  0
 -3.431676 -3.028075  0.000000 F    0  0  0  0  0  0  0
 -4.826181 -3.028075  0.000000 F    0  0  0  0  0  0  0
 -4.826181 -2.222920  0.000000 F    0  0  0  0  0  0  0
 -4.128897 -3.430590  0.000000 F    0  0  0  0  0  0  0
  1  2  1  0  0  0  0
  1  3  2  0  0  0  0
  2  4  2  0  0  0  0
  3  5  1  0  0  0  0
  4  6  1  0  0  0  0
  5  6  2  0  0  0  0
  7  8  1  0  0  0  0
  7  9  2  0  0  0  0
  8 10  2  0  0  0  0
  9 11  1  0  0  0  0
 10 12  1  0  0  0  0
 11 12  2  0  0  0  0
 13 14  1  0  0  0  0
 13 15  2  0  0  0  0
 14 16  2  0  0  0  0
 15 17  1  0  0  0  0
 16 18  1  0  0  0  0
 17 18  2  0  0  0  0
 15 19  1  0  0  0  0
 11 19  1  0  0  0  0
  4 19  1  0  0  0  0
 19 20  1  0  0  0  0
 21 22  1  0  0  0  0
 21 23  1  0  0  0  0
 22 25  1  0  0  0  0
 23 24  1  0  0  0  0
 24 26  1  0  0  0  0
 25 27  1  0  0  0  0
 26 28  1  0  0  0  0
 27 28  1  0  0  0  0
 29 30  1  0  0  0  0
 29 31  2  0  0  0  0
 30 32  2  0  0  0  0
 31 33  1  0  0  0  0
 32 34  1  0  0  0  0
 33 34  2  0  0  0  0
 31 20  1  0  0  0  0
 27 20  1  0  0  0  0
 28 20  1  0  0  0  0
 20 21  1  0  0  0  0
 23 20  1  0  0  0  0
 32 35  1  0  0  0  0
 36 37  1  0  0  0  0
 36 38  1  0  0  0  0
 36 39  1  0  0  0  0
 36 40  1  0  0  0  0
 36 41  1  0  0  0  0
 36 42  1  0  0  0  0
M  END
> <NMREDATA_VERSION>
1.1

> <NMREDATA_LEVEL>
0

> <NMREDATA_SOLVENT>
DCCl3

> <NMREDATA_TEMPERATURE>
298

> <NMREDATA_FORMULA>
C32H36F6NP2Rh

> <NMREDATA_SMILES>
F[P](F)(F)(F)(F)F.CC1=CC=N(C=C1)[Rh]123(C4C3CCC1C2CC4)P(c1ccccc1)(c1ccccc1)c1ccccc1

> <NMREDATA_ASSIGNMENT>
Rh20, 419.00, 20

> <NMREDATA_1D_103Rh>
419.00, L=Rh20

$$$$
LaurenceCarlton-2008_00253.mol
  ChemDraw08142417182D

M  V30 COUNTS 44 50 0 0 0
  4.552069  1.320937  0.000000 C    0  0  0  0  0  0  0
  3.741083  1.472601  0.000000 C    0  0  0  0  0  0  0
  4.826181  0.542828  0.000000 C    0  0  0  0  0  0  0
  3.204272  0.846094  0.000000 C    0  0  0  0  0  0  0
  4.289369 -0.083679  0.000000 C    0  0  0  0  0  0  0
  3.478446  0.067986  0.000000 C    0  0  0  0  0  0  0
  3.474725  2.893779  0.000000 C    0  0  0  0  0  0  0
  2.848280  3.430590  0.000000 C    0  0  0  0  0  0  0
  3.323123  2.082856  0.000000 C    0  0  0  0  0  0  0
  2.070170  3.156416  0.000000 C    0  0  0  0  0  0  0
  2.545013  1.808682  0.000000 C    0  0  0  0  0  0  0
  1.918507  2.345493  0.000000 C    0  0  0  0  0  0  0
  1.463576 -0.087339  0.000000 C    0  0  0  0  0  0  0
  1.311973 -0.898324  0.000000 C    0  0  0  0  0  0  0
  2.241684  0.186773  0.000000 C    0  0  0  0  0  0  0
  1.938418 -1.435135  0.000000 C    0  0  0  0  0  0  0
  2.868192 -0.349975  0.000000 C    0  0  0  0  0  0  0
  2.716589 -1.160960  0.000000 C    0  0  0  0  0  0  0
  2.393350  0.997758  0.000000 P    0  0  0  0  0  0  0
 -0.457939  1.152772  0.000000 Rh   0  3  0  0  0  0  0
 -4.162518  1.559072  0.000000 C    0  0  0  0  0  0  0
 -3.579122  2.142468  0.000000 C    0  0  0  0  0  0  0
 -4.162518  0.734067  0.000000 C    0  0  0  0  0  0  0
 -3.579122  0.150795  0.000000 C    0  0  0  0  0  0  0
 -2.754180  2.142468  0.000000 C    0  0  0  0  0  0  0
 -2.754180  0.150795  0.000000 C    0  0  0  0  0  0  0
 -2.170784  1.559072  0.000000 C    0  0  0  0  0  0  0
 -2.170784  0.734067  0.000000 C    0  0  0  0  0  0  0
  0.272096 -0.329381  0.000000 C    0  0  0  0  0  0  0
  0.272096 -1.154385  0.000000 C    0  0  0  0  0  0  0
 -0.442494  0.083121  0.000000 N    0  0  0  0  0  0  0
 -0.442494 -1.566887  0.000000 C    0  0  0  0  0  0  0
 -1.156898 -0.329381  0.000000 C    0  0  0  0  0  0  0
 -1.156898 -1.154385  0.000000 C    0  0  0  0  0  0  0
 -0.442540 -2.391887  0.000000 N    0  0  0  0  0  0  0
  0.271907 -2.804427  0.000000 C    0  0  0  0  0  0  0
 -1.157035 -2.804347  0.000000 C    0  0  0  0  0  0  0
 -4.128897 -2.625498  0.000000 P    0  5  0  0  0  0  0
 -4.128897 -1.820343  0.000000 F    0  0  0  0  0  0  0
 -3.431676 -2.222920  0.000000 F    0  0  0  0  0  0  0
 -3.431676 -3.028075  0.000000 F    0  0  0  0  0  0  0
 -4.826181 -3.028075  0.000000 F    0  0  0  0  0  0  0
 -4.826181 -2.222920  0.000000 F    0  0  0  0  0  0  0
 -4.128897 -3.430590  0.000000 F    0  0  0  0  0  0  0
  1  2  1  0  0  0  0
  1  3  2  0  0  0  0
  2  4  2  0  0  0  0
  3  5  1  0  0  0  0
  4  6  1  0  0  0  0
  5  6  2  0  0  0  0
  7  8  1  0  0  0  0
  7  9  2  0  0  0  0
  8 10  2  0  0  0  0
  9 11  1  0  0  0  0
 10 12  1  0  0  0  0
 11 12  2  0  0  0  0
 13 14  1  0  0  0  0
 13 15  2  0  0  0  0
 14 16  2  0  0  0  0
 15 17  1  0  0  0  0
 16 18  1  0  0  0  0
 17 18  2  0  0  0  0
 15 19  1  0  0  0  0
 11 19  1  0  0  0  0
  4 19  1  0  0  0  0
 19 20  1  0  0  0  0
 21 22  1  0  0  0  0
 21 23  1  0  0  0  0
 22 25  1  0  0  0  0
 23 24  1  0  0  0  0
 24 26  1  0  0  0  0
 25 27  1  0  0  0  0
 26 28  1  0  0  0  0
 27 28  1  0  0  0  0
 29 30  1  0  0  0  0
 29 31  2  0  0  0  0
 30 32  2  0  0  0  0
 31 33  1  0  0  0  0
 32 34  1  0  0  0  0
 33 34  2  0  0  0  0
 31 20  1  0  0  0  0
 27 20  1  0  0  0  0
 28 20  1  0  0  0  0
 20 21  1  0  0  0  0
 23 20  1  0  0  0  0
 32 35  1  0  0  0  0
 35 36  1  0  0  0  0
 35 37  1  0  0  0  0
 38 39  1  0  0  0  0
 38 40  1  0  0  0  0
 38 41  1  0  0  0  0
 38 42  1  0  0  0  0
 38 43  1  0  0  0  0
 38 44  1  0  0  0  0
M  END
> <NMREDATA_VERSION>
1.1

> <NMREDATA_LEVEL>
0

> <NMREDATA_SOLVENT>
DCCl3

> <NMREDATA_TEMPERATURE>
298

> <NMREDATA_FORMULA>
C33H39F6N2P2Rh

> <NMREDATA_SMILES>
F[P](F)(F)(F)(F)F.CN(C1=CC=N(C=C1)[Rh]123(C4C3CCC1C2CC4)P(c1ccccc1)(c1ccccc1)c1ccccc1)C

> <NMREDATA_ASSIGNMENT>
Rh20, 436.00, 20

> <NMREDATA_1D_103Rh>
436.00, L=Rh20

$$$$

  ACD/LABS03072417283D

 27 33  0  0  0  0  0  0  0  0  1 V2000
   14.9605  -18.2451    0.0000 C    0  0  0  0  0  0  0  0  0  0  0  0
   14.8716  -16.9663    0.0000 C    0  0  0  0  0  0  0  0  0  0  0  0
   13.7196  -16.4038    0.0000 C    0  0  0  0  0  0  0  0  0  0  0  0
   12.6566  -17.1203    0.0000 C    0  0  0  0  0  0  0  0  0  0  0  0
   12.7455  -18.3991    0.0000 C    0  0  0  0  0  0  0  0  0  0  0  0
   13.8974  -18.9615    0.0000 C    0  0  0  0  0  0  0  0  0  0  0  0
   14.5469  -17.6313    0.0000 C    0  0  0  0  0  0  0  0  0  0  0  0
   16.3890  -15.6120    0.0000 Rh   0  0  0  0  0  0  0  0  0  0  0  0
   17.6567  -13.4042    0.0000 N    0  0  0  0  0  0  0  0  0  0  0  0
   17.6567  -14.7342    0.0000 N    0  0  0  0  0  0  0  0  0  0  0  0
   16.5048  -12.7392    0.0000 B    0  0  0  0  0  0  0  0  0  0  0  0
   15.3530  -13.4042    0.0000 N    0  0  0  0  0  0  0  0  0  0  0  0
   15.3530  -14.7342    0.0000 N    0  0  0  0  0  0  0  0  0  0  0  0
   18.9215  -12.9932    0.0000 C    0  0  0  0  0  0  0  0  0  0  0  0
   19.7033  -14.0692    0.0000 C    0  0  0  0  0  0  0  0  0  0  0  0
   18.9217  -15.1452    0.0000 C    0  0  0  0  0  0  0  0  0  0  0  0
   14.0881  -12.9932    0.0000 C    0  0  0  0  0  0  0  0  0  0  0  0
   13.3064  -14.0692    0.0000 C    0  0  0  0  0  0  0  0  0  0  0  0
   14.0880  -15.1452    0.0000 C    0  0  0  0  0  0  0  0  0  0  0  0
   14.4514   -9.0351    0.0000 C    0  0  0  0  0  0  0  0  0  0  0  0
   15.5281   -8.2543    0.0000 C    0  0  0  0  0  0  0  0  0  0  0  0
   14.8613  -10.3004    0.0000 N    0  0  0  0  0  0  0  0  0  0  0  0
   16.6033   -9.0370    0.0000 C    0  0  0  0  0  0  0  0  0  0  0  0
   16.1914  -10.3016    0.0000 N    0  0  0  0  0  0  0  0  0  0  0  0
   18.0271  -11.8418    0.0000 H    0  0  0  0  0  0  0  0  0  0  0  0
   13.1868   -8.6230    0.0000 C    0  0  0  0  0  0  0  0  0  0  0  0
   17.8686   -8.6271    0.0000 C    0  0  0  0  0  0  0  0  0  0  0  0
  1  2  2  0  0  0  0
  2  3  1  0  0  0  0
  3  4  1  0  0  0  0
  4  5  2  0  0  0  0
  1  6  1  0  0  0  0
  6  5  1  0  0  0  0
  6  7  1  0  0  0  0
  3  7  1  0  0  0  0
  9 11  1  0  0  0  0
 11 12  1  0  0  0  0
  9 14  1  0  0  0  0
  9 10  1  0  0  0  0
 14 15  2  0  0  0  0
 10 16  2  0  0  0  0
 15 16  1  0  0  0  0
 12 17  1  0  0  0  0
 12 13  1  0  0  0  0
 17 18  2  0  0  0  0
 13 19  2  0  0  0  0
 18 19  1  0  0  0  0
 20 21  1  0  0  0  0
 20 22  2  0  0  0  0
 21 23  2  0  0  0  0
 22 24  1  0  0  0  0
 23 24  1  0  0  0  0
 11 24  1  0  0  0  0
 11 25  1  0  0  0  0
  8 10  1  0  0  0  0
  8 13  1  0  0  0  0
  8 22  1  0  0  0  0
 20 26  1  0  0  0  0
 23 27  1  0  0  0  0
  7  8  1  0  0  0  0
M  END
> <NMREDATA_VERSION>
1.1

> <NMREDATA_LEVEL>
0

> <NMREDATA_SOLVENT>
DCCl3

> <NMREDATA_TEMPERATURE>
298

> <NMREDATA_FORMULA>
C18H24BN6Rh

> <NMREDATA_SMILES>
CC1=CC(=N2N1[BH]1N3C=CC=N3[Rh]2(N2=CC=CN12)C1C2C=CC1C=C2)C

> <NMREDATA_ASSIGNMENT>
Rh8, 1777.00, 8

> <NMREDATA_1D_103Rh>
1777.00, L=Rh8

$$$$

  ACD/LABS03072417293D

 28 33  0  0  0  0  0  0  0  0  1 V2000
    8.6771  -17.4315    0.0000 C    0  0  0  0  0  0  0  0  0  0  0  0
    7.3471  -17.4315    0.0000 C    0  0  0  0  0  0  0  0  0  0  0  0
    9.6176  -16.4911    0.0000 C    0  0  0  0  0  0  0  0  0  0  0  0
    9.6176  -15.1611    0.0000 C    0  0  0  0  0  0  0  0  0  0  0  0
    6.4067  -16.4911    0.0000 C    0  0  0  0  0  0  0  0  0  0  0  0
    8.6771  -14.2206    0.0000 C    0  0  0  0  0  0  0  0  0  0  0  0
    6.4067  -15.1611    0.0000 C    0  0  0  0  0  0  0  0  0  0  0  0
    7.3471  -14.2206    0.0000 C    0  0  0  0  0  0  0  0  0  0  0  0
   16.3890  -15.6120    0.0000 Rh   0  0  0  0  0  0  0  0  0  0  0  0
   17.6567  -13.4042    0.0000 N    0  0  0  0  0  0  0  0  0  0  0  0
   17.6567  -14.7342    0.0000 N    0  0  0  0  0  0  0  0  0  0  0  0
   16.5048  -12.7392    0.0000 B    0  0  0  0  0  0  0  0  0  0  0  0
   15.3530  -13.4042    0.0000 N    0  0  0  0  0  0  0  0  0  0  0  0
   15.3530  -14.7342    0.0000 N    0  0  0  0  0  0  0  0  0  0  0  0
   18.9215  -12.9932    0.0000 C    0  0  0  0  0  0  0  0  0  0  0  0
   19.7033  -14.0692    0.0000 C    0  0  0  0  0  0  0  0  0  0  0  0
   18.9217  -15.1452    0.0000 C    0  0  0  0  0  0  0  0  0  0  0  0
   14.0881  -12.9932    0.0000 C    0  0  0  0  0  0  0  0  0  0  0  0
   13.3064  -14.0692    0.0000 C    0  0  0  0  0  0  0  0  0  0  0  0
   14.0880  -15.1452    0.0000 C    0  0  0  0  0  0  0  0  0  0  0  0
   14.4514   -9.0351    0.0000 C    0  0  0  0  0  0  0  0  0  0  0  0
   15.5281   -8.2543    0.0000 C    0  0  0  0  0  0  0  0  0  0  0  0
   14.8613  -10.3004    0.0000 N    0  0  0  0  0  0  0  0  0  0  0  0
   16.6033   -9.0370    0.0000 C    0  0  0  0  0  0  0  0  0  0  0  0
   16.1914  -10.3016    0.0000 N    0  0  0  0  0  0  0  0  0  0  0  0
   18.0271  -11.8418    0.0000 H    0  0  0  0  0  0  0  0  0  0  0  0
   13.1868   -8.6230    0.0000 C    0  0  0  0  0  0  0  0  0  0  0  0
   17.8686   -8.6271    0.0000 C    0  0  0  0  0  0  0  0  0  0  0  0
  1  2  1  0  0  0  0
  1  3  1  0  0  0  0
  2  5  2  0  0  0  0
  3  4  2  0  0  0  0
  4  6  1  0  0  0  0
  5  7  1  0  0  0  0
  6  8  1  0  0  0  0
  7  8  1  0  0  0  0
 10 12  1  0  0  0  0
 12 13  1  0  0  0  0
 10 15  1  0  0  0  0
 10 11  1  0  0  0  0
 15 16  2  0  0  0  0
 11 17  2  0  0  0  0
 16 17  1  0  0  0  0
 13 18  1  0  0  0  0
 13 14  1  0  0  0  0
 18 19  2  0  0  0  0
 14 20  2  0  0  0  0
 19 20  1  0  0  0  0
 21 22  1  0  0  0  0
 21 23  2  0  0  0  0
 22 24  2  0  0  0  0
 23 25  1  0  0  0  0
 24 25  1  0  0  0  0
 12 25  1  0  0  0  0
 12 26  1  0  0  0  0
  9 11  1  0  0  0  0
  9 14  1  0  0  0  0
  9 23  1  0  0  0  0
 21 27  1  0  0  0  0
 24 28  1  0  0  0  0
  4  9  1  0  0  0  0
M  END
> <NMREDATA_VERSION>
1.1

> <NMREDATA_LEVEL>
0

> <NMREDATA_SOLVENT>
C6D6

> <NMREDATA_TEMPERATURE>
295

> <NMREDATA_FORMULA>
C19H28BN6Rh

> <NMREDATA_SMILES>
CC1=CC(=N2N1[BH]1N3C=CC=N3[Rh]2(N2=CC=CN12)C1=CCC=CCCC1)C

> <NMREDATA_ASSIGNMENT>
Rh9, 1942.00, 9

> <NMREDATA_1D_103Rh>
1942.00, L=Rh9

$$$$

  ACD/LABS03072417313D

 26 32  0  0  0  0  0  0  0  0  1 V2000
   14.2615  -19.3892    0.0000 C    0  0  0  0  0  0  0  0  0  0  0  0
   14.2134  -18.2675    0.0000 C    0  0  0  0  0  0  0  0  0  0  0  0
   15.7837  -17.6746    0.0000 C    0  0  0  0  0  0  0  0  0  0  0  0
   17.3221  -18.4437    0.0000 C    0  0  0  0  0  0  0  0  0  0  0  0
   15.4152  -18.8764    0.0000 C    0  0  0  0  0  0  0  0  0  0  0  0
   17.0657  -19.6936    0.0000 C    0  0  0  0  0  0  0  0  0  0  0  0
   15.2069  -16.8894    0.0000 C    0  0  0  0  0  0  0  0  0  0  0  0
   16.3890  -15.6120    0.0000 Rh   0  0  0  0  0  0  0  0  0  0  0  0
   17.6567  -13.4042    0.0000 N    0  0  0  0  0  0  0  0  0  0  0  0
   17.6567  -14.7342    0.0000 N    0  0  0  0  0  0  0  0  0  0  0  0
   16.5048  -12.7392    0.0000 B    0  0  0  0  0  0  0  0  0  0  0  0
   15.3530  -13.4042    0.0000 N    0  0  0  0  0  0  0  0  0  0  0  0
   15.3530  -14.7342    0.0000 N    0  0  0  0  0  0  0  0  0  0  0  0
   18.9215  -12.9932    0.0000 C    0  0  0  0  0  0  0  0  0  0  0  0
   19.7033  -14.0692    0.0000 C    0  0  0  0  0  0  0  0  0  0  0  0
   18.9217  -15.1452    0.0000 C    0  0  0  0  0  0  0  0  0  0  0  0
   14.0881  -12.9932    0.0000 C    0  0  0  0  0  0  0  0  0  0  0  0
   13.3064  -14.0692    0.0000 C    0  0  0  0  0  0  0  0  0  0  0  0
   14.0880  -15.1452    0.0000 C    0  0  0  0  0  0  0  0  0  0  0  0
   14.4514   -9.0351    0.0000 C    0  0  0  0  0  0  0  0  0  0  0  0
   15.5281   -8.2543    0.0000 C    0  0  0  0  0  0  0  0  0  0  0  0
   14.8613  -10.3004    0.0000 N    0  0  0  0  0  0  0  0  0  0  0  0
   16.6033   -9.0370    0.0000 C    0  0  0  0  0  0  0  0  0  0  0  0
   16.1914  -10.3016    0.0000 N    0  0  0  0  0  0  0  0  0  0  0  0
   18.0271  -11.8418    0.0000 H    0  0  0  0  0  0  0  0  0  0  0  0
   13.1868   -8.6230    0.0000 C    0  0  0  0  0  0  0  0  0  0  0  0
  1  2  2  0  0  0  0
  2  3  1  0  0  0  0
  3  4  1  0  0  0  0
  1  5  1  0  0  0  0
  5  6  1  0  0  0  0
  6  4  2  0  0  0  0
  5  7  1  0  0  0  0
  3  7  1  0  0  0  0
  9 11  1  0  0  0  0
 11 12  1  0  0  0  0
  9 14  1  0  0  0  0
  9 10  1  0  0  0  0
 14 15  2  0  0  0  0
 10 16  2  0  0  0  0
 15 16  1  0  0  0  0
 12 17  1  0  0  0  0
 12 13  1  0  0  0  0
 17 18  2  0  0  0  0
 13 19  2  0  0  0  0
 18 19  1  0  0  0  0
 20 21  1  0  0  0  0
 20 22  2  0  0  0  0
 21 23  2  0  0  0  0
 22 24  1  0  0  0  0
 23 24  1  0  0  0  0
 11 24  1  0  0  0  0
 11 25  1  0  0  0  0
  8 10  1  0  0  0  0
  8 13  1  0  0  0  0
  8 22  1  0  0  0  0
 20 26  1  0  0  0  0
  7  8  1  0  0  0  0
M  END
> <NMREDATA_VERSION>
1.1

> <NMREDATA_LEVEL>
0

> <NMREDATA_SOLVENT>
DCCl3

> <NMREDATA_TEMPERATURE>
298

> <NMREDATA_FORMULA>
C17H22BN6Rh

> <NMREDATA_SMILES>
CC1=N2N(C=C1)[BH]1N3N(=CC=C3)[Rh]2(C2C3C=CC2C=C3)N2=CC=CN12

> <NMREDATA_ASSIGNMENT>
Rh8, 1619.00, 8

> <NMREDATA_1D_103Rh>
1619.00, L=Rh8

$$$$

  ACD/LABS03072417333D

 30 36  0  0  0  0  0  0  0  0  1 V2000
   12.5469  -19.5174    0.0000 C    0  0  0  0  0  0  0  0  0  0  0  0
   13.0436  -18.3636    0.0000 C    0  0  0  0  0  0  0  0  0  0  0  0
   14.5339  -17.6105    0.0000 C    0  0  0  0  0  0  0  0  0  0  0  0
   16.0241  -18.5399    0.0000 C    0  0  0  0  0  0  0  0  0  0  0  0
   14.3095  -18.6521    0.0000 C    0  0  0  0  0  0  0  0  0  0  0  0
   15.2229  -19.9019    0.0000 C    0  0  0  0  0  0  0  0  0  0  0  0
   14.6621  -16.3125    0.0000 C    0  0  0  0  0  0  0  0  0  0  0  0
   16.3890  -15.6120    0.0000 Rh   0  0  0  0  0  0  0  0  0  0  0  0
   17.6567  -13.4042    0.0000 N    0  0  0  0  0  0  0  0  0  0  0  0
   17.6567  -14.7342    0.0000 N    0  0  0  0  0  0  0  0  0  0  0  0
   16.5048  -12.7392    0.0000 B    0  0  0  0  0  0  0  0  0  0  0  0
   15.3530  -13.4042    0.0000 N    0  0  0  0  0  0  0  0  0  0  0  0
   15.3530  -14.7342    0.0000 N    0  0  0  0  0  0  0  0  0  0  0  0
   18.9215  -12.9932    0.0000 C    0  0  0  0  0  0  0  0  0  0  0  0
   19.7033  -14.0692    0.0000 C    0  0  0  0  0  0  0  0  0  0  0  0
   18.9217  -15.1452    0.0000 C    0  0  0  0  0  0  0  0  0  0  0  0
   14.0881  -12.9932    0.0000 C    0  0  0  0  0  0  0  0  0  0  0  0
   13.3064  -14.0692    0.0000 C    0  0  0  0  0  0  0  0  0  0  0  0
   14.0880  -15.1452    0.0000 C    0  0  0  0  0  0  0  0  0  0  0  0
   14.4514   -9.0351    0.0000 C    0  0  0  0  0  0  0  0  0  0  0  0
   15.5281   -8.2543    0.0000 C    0  0  0  0  0  0  0  0  0  0  0  0
   14.8613  -10.3004    0.0000 N    0  0  0  0  0  0  0  0  0  0  0  0
   16.6033   -9.0370    0.0000 C    0  0  0  0  0  0  0  0  0  0  0  0
   16.1914  -10.3016    0.0000 N    0  0  0  0  0  0  0  0  0  0  0  0
   18.0271  -11.8418    0.0000 H    0  0  0  0  0  0  0  0  0  0  0  0
   13.1868   -8.6230    0.0000 C    0  0  0  0  0  0  0  0  0  0  0  0
   12.5469   -7.3390    0.0000 F    0  0  0  0  0  0  0  0  0  0  0  0
   11.6816   -8.7492    0.0000 F    0  0  0  0  0  0  0  0  0  0  0  0
   12.7552   -9.6786    0.0000 F    0  0  0  0  0  0  0  0  0  0  0  0
   17.8686   -8.6271    0.0000 C    0  0  0  0  0  0  0  0  0  0  0  0
  1  2  2  0  0  0  0
  2  3  1  0  0  0  0
  3  4  1  0  0  0  0
  1  5  1  0  0  0  0
  5  6  1  0  0  0  0
  6  4  2  0  0  0  0
  5  7  1  0  0  0  0
  3  7  1  0  0  0  0
  9 11  1  0  0  0  0
 11 12  1  0  0  0  0
  9 14  1  0  0  0  0
  9 10  1  0  0  0  0
 14 15  2  0  0  0  0
 10 16  2  0  0  0  0
 15 16  1  0  0  0  0
 12 17  1  0  0  0  0
 12 13  1  0  0  0  0
 17 18  2  0  0  0  0
 13 19  2  0  0  0  0
 18 19  1  0  0  0  0
 20 21  1  0  0  0  0
 20 22  2  0  0  0  0
 21 23  2  0  0  0  0
 22 24  1  0  0  0  0
 23 24  1  0  0  0  0
 11 24  1  0  0  0  0
 11 25  1  0  0  0  0
  8 10  1  0  0  0  0
  8 13  1  0  0  0  0
  8 22  1  0  0  0  0
 20 26  1  0  0  0  0
 26 27  1  0  0  0  0
 26 28  1  0  0  0  0
 26 29  1  0  0  0  0
 23 30  1  0  0  0  0
  7  8  1  0  0  0  0
M  END
> <NMREDATA_VERSION>
1.1

> <NMREDATA_LEVEL>
0

> <NMREDATA_SOLVENT>
DCCl3

> <NMREDATA_TEMPERATURE>
298

> <NMREDATA_FORMULA>
C18H21BF3N6Rh

> <NMREDATA_SMILES>
CC1=CC(=N2N1[BH]1N3C=CC=N3[Rh]2(N2=CC=CN12)C1C2C=CC1C=C2)C(F)(F)F

> <NMREDATA_ASSIGNMENT>
Rh8, 1261.00, 8

> <NMREDATA_1D_103Rh>
1261.00, L=Rh8

$$$$

  ACD/LABS03072417343D

 33 39  0  0  0  0  0  0  0  0  1 V2000
   12.5469  -19.5174    0.0000 C    0  0  0  0  0  0  0  0  0  0  0  0
   13.0436  -18.3636    0.0000 C    0  0  0  0  0  0  0  0  0  0  0  0
   14.5339  -17.6105    0.0000 C    0  0  0  0  0  0  0  0  0  0  0  0
   16.0241  -18.5399    0.0000 C    0  0  0  0  0  0  0  0  0  0  0  0
   14.3095  -18.6521    0.0000 C    0  0  0  0  0  0  0  0  0  0  0  0
   15.2229  -19.9019    0.0000 C    0  0  0  0  0  0  0  0  0  0  0  0
   14.6621  -16.3125    0.0000 C    0  0  0  0  0  0  0  0  0  0  0  0
   16.3890  -15.6120    0.0000 Rh   0  0  0  0  0  0  0  0  0  0  0  0
   17.6567  -13.4042    0.0000 N    0  0  0  0  0  0  0  0  0  0  0  0
   17.6567  -14.7342    0.0000 N    0  0  0  0  0  0  0  0  0  0  0  0
   16.5048  -12.7392    0.0000 B    0  0  0  0  0  0  0  0  0  0  0  0
   15.3530  -13.4042    0.0000 N    0  0  0  0  0  0  0  0  0  0  0  0
   15.3530  -14.7342    0.0000 N    0  0  0  0  0  0  0  0  0  0  0  0
   18.9215  -12.9932    0.0000 C    0  0  0  0  0  0  0  0  0  0  0  0
   19.7033  -14.0692    0.0000 C    0  0  0  0  0  0  0  0  0  0  0  0
   18.9217  -15.1452    0.0000 C    0  0  0  0  0  0  0  0  0  0  0  0
   14.0881  -12.9932    0.0000 C    0  0  0  0  0  0  0  0  0  0  0  0
   13.3064  -14.0692    0.0000 C    0  0  0  0  0  0  0  0  0  0  0  0
   14.0880  -15.1452    0.0000 C    0  0  0  0  0  0  0  0  0  0  0  0
   14.4514   -9.0351    0.0000 C    0  0  0  0  0  0  0  0  0  0  0  0
   15.5281   -8.2543    0.0000 C    0  0  0  0  0  0  0  0  0  0  0  0
   14.8613  -10.3004    0.0000 N    0  0  0  0  0  0  0  0  0  0  0  0
   16.6033   -9.0370    0.0000 C    0  0  0  0  0  0  0  0  0  0  0  0
   16.1914  -10.3016    0.0000 N    0  0  0  0  0  0  0  0  0  0  0  0
   18.0271  -11.8418    0.0000 H    0  0  0  0  0  0  0  0  0  0  0  0
   13.1868   -8.6230    0.0000 C    0  0  0  0  0  0  0  0  0  0  0  0
   12.5469   -7.3390    0.0000 F    0  0  0  0  0  0  0  0  0  0  0  0
   11.6816   -8.7492    0.0000 F    0  0  0  0  0  0  0  0  0  0  0  0
   12.7552   -9.6786    0.0000 F    0  0  0  0  0  0  0  0  0  0  0  0
   17.8686   -8.6271    0.0000 C    0  0  0  0  0  0  0  0  0  0  0  0
   18.5239   -7.2269    0.0000 F    0  0  0  0  0  0  0  0  0  0  0  0
   19.5013   -8.3646    0.0000 F    0  0  0  0  0  0  0  0  0  0  0  0
   18.8924   -9.4863    0.0000 F    0  0  0  0  0  0  0  0  0  0  0  0
  1  2  2  0  0  0  0
  2  3  1  0  0  0  0
  3  4  1  0  0  0  0
  1  5  1  0  0  0  0
  5  6  1  0  0  0  0
  6  4  2  0  0  0  0
  5  7  1  0  0  0  0
  3  7  1  0  0  0  0
  9 11  1  0  0  0  0
 11 12  1  0  0  0  0
  9 14  1  0  0  0  0
  9 10  1  0  0  0  0
 14 15  2  0  0  0  0
 10 16  2  0  0  0  0
 15 16  1  0  0  0  0
 12 17  1  0  0  0  0
 12 13  1  0  0  0  0
 17 18  2  0  0  0  0
 13 19  2  0  0  0  0
 18 19  1  0  0  0  0
 20 21  1  0  0  0  0
 20 22  2  0  0  0  0
 21 23  2  0  0  0  0
 22 24  1  0  0  0  0
 23 24  1  0  0  0  0
 11 24  1  0  0  0  0
 11 25  1  0  0  0  0
  8 10  1  0  0  0  0
  8 13  1  0  0  0  0
  8 22  1  0  0  0  0
 20 26  1  0  0  0  0
 26 27  1  0  0  0  0
 26 28  1  0  0  0  0
 26 29  1  0  0  0  0
 23 30  1  0  0  0  0
  7  8  1  0  0  0  0
 30 31  1  0  0  0  0
 30 32  1  0  0  0  0
 30 33  1  0  0  0  0
M  END
> <NMREDATA_VERSION>
1.1

> <NMREDATA_LEVEL>
0

> <NMREDATA_SOLVENT>
DCCl3

> <NMREDATA_TEMPERATURE>
298

> <NMREDATA_FORMULA>
C18H18BF6N6Rh

> <NMREDATA_SMILES>
FC(C1=N2N(C(=C1)C(F)(F)F)[BH]1N3N(=CC=C3)[Rh]2(C2C3C=CC2C=C3)N2=CC=CN12)(F)F

> <NMREDATA_ASSIGNMENT>
Rh8, 1244.00, 8

> <NMREDATA_1D_103Rh>
1244.00, L=Rh8

$$$$

  ACD/LABS03072417383D

 29 35  0  0  0  0  0  0  0  0  1 V2000
   14.4217  -19.8539    0.0000 C    0  0  0  0  0  0  0  0  0  0  0  0
   14.4377  -18.3796    0.0000 C    0  0  0  0  0  0  0  0  0  0  0  0
   16.3766  -17.5784    0.0000 C    0  0  0  0  0  0  0  0  0  0  0  0
   17.7227  -18.1874    0.0000 C    0  0  0  0  0  0  0  0  0  0  0  0
   16.0081  -19.1168    0.0000 C    0  0  0  0  0  0  0  0  0  0  0  0
   17.4663  -19.8058    0.0000 C    0  0  0  0  0  0  0  0  0  0  0  0
   16.0882  -16.8093    0.0000 C    0  0  0  0  0  0  0  0  0  0  0  0
   16.3890  -15.6120    0.0000 Rh   0  0  0  0  0  0  0  0  0  0  0  0
   17.6567  -13.4042    0.0000 N    0  0  0  0  0  0  0  0  0  0  0  0
   17.6567  -14.7342    0.0000 N    0  0  0  0  0  0  0  0  0  0  0  0
   16.5048  -12.7392    0.0000 B    0  0  0  0  0  0  0  0  0  0  0  0
   15.3530  -13.4042    0.0000 N    0  0  0  0  0  0  0  0  0  0  0  0
   15.3530  -14.7342    0.0000 N    0  0  0  0  0  0  0  0  0  0  0  0
   18.9215  -12.9932    0.0000 C    0  0  0  0  0  0  0  0  0  0  0  0
   19.7033  -14.0692    0.0000 C    0  0  0  0  0  0  0  0  0  0  0  0
   18.9217  -15.1452    0.0000 C    0  0  0  0  0  0  0  0  0  0  0  0
   14.0881  -12.9932    0.0000 C    0  0  0  0  0  0  0  0  0  0  0  0
   13.3064  -14.0692    0.0000 C    0  0  0  0  0  0  0  0  0  0  0  0
   14.0880  -15.1452    0.0000 C    0  0  0  0  0  0  0  0  0  0  0  0
   14.4514   -9.0351    0.0000 C    0  0  0  0  0  0  0  0  0  0  0  0
   15.5281   -8.2543    0.0000 C    0  0  0  0  0  0  0  0  0  0  0  0
   14.8613  -10.3004    0.0000 N    0  0  0  0  0  0  0  0  0  0  0  0
   16.6033   -9.0370    0.0000 C    0  0  0  0  0  0  0  0  0  0  0  0
   16.1914  -10.3016    0.0000 N    0  0  0  0  0  0  0  0  0  0  0  0
   18.0271  -11.8418    0.0000 H    0  0  0  0  0  0  0  0  0  0  0  0
   13.1868   -8.6230    0.0000 C    0  0  0  0  0  0  0  0  0  0  0  0
   12.1976   -9.5122    0.0000 C    0  0  0  0  0  0  0  0  0  0  0  0
   12.9114   -7.3219    0.0000 C    0  0  0  0  0  0  0  0  0  0  0  0
   15.4472   -6.9384    0.0000 Br   0  0  0  0  0  0  0  0  0  0  0  0
  1  2  2  0  0  0  0
  2  3  1  0  0  0  0
  3  4  1  0  0  0  0
  1  5  1  0  0  0  0
  5  6  1  0  0  0  0
  6  4  2  0  0  0  0
  5  7  1  0  0  0  0
  3  7  1  0  0  0  0
  9 11  1  0  0  0  0
 11 12  1  0  0  0  0
  9 14  1  0  0  0  0
  9 10  1  0  0  0  0
 14 15  2  0  0  0  0
 10 16  2  0  0  0  0
 15 16  1  0  0  0  0
 12 17  1  0  0  0  0
 12 13  1  0  0  0  0
 17 18  2  0  0  0  0
 13 19  2  0  0  0  0
 18 19  1  0  0  0  0
 20 21  1  0  0  0  0
 20 22  2  0  0  0  0
 21 23  2  0  0  0  0
 22 24  1  0  0  0  0
 23 24  1  0  0  0  0
 11 24  1  0  0  0  0
 11 25  1  0  0  0  0
  8 10  1  0  0  0  0
  8 13  1  0  0  0  0
  8 22  1  0  0  0  0
 26 27  1  0  0  0  0
 26 28  1  0  0  0  0
 20 26  1  0  0  0  0
 21 29  1  0  0  0  0
  7  8  1  0  0  0  0
M  END
> <NMREDATA_VERSION>
1.1

> <NMREDATA_LEVEL>
0

> <NMREDATA_SOLVENT>
DCCl3

> <NMREDATA_TEMPERATURE>
298

> <NMREDATA_FORMULA>
C19H25BBrN6Rh

> <NMREDATA_SMILES>
CC(C1=N2N(C=C1Br)[BH]1N3N(=CC=C3)[Rh]2(C2C3C=CC2C=C3)N2=CC=CN12)C

> <NMREDATA_ASSIGNMENT>
Rh8, 1274.00, 8

> <NMREDATA_1D_103Rh>
1274.00, L=Rh8

$$$$

  ACD/LABS03072417383D

 29 35  0  0  0  0  0  0  0  0  1 V2000
   14.4217  -19.8539    0.0000 C    0  0  0  0  0  0  0  0  0  0  0  0
   14.4377  -18.3796    0.0000 C    0  0  0  0  0  0  0  0  0  0  0  0
   16.3766  -17.5784    0.0000 C    0  0  0  0  0  0  0  0  0  0  0  0
   17.7227  -18.1874    0.0000 C    0  0  0  0  0  0  0  0  0  0  0  0
   16.0081  -19.1168    0.0000 C    0  0  0  0  0  0  0  0  0  0  0  0
   17.4663  -19.8058    0.0000 C    0  0  0  0  0  0  0  0  0  0  0  0
   16.0882  -16.8093    0.0000 C    0  0  0  0  0  0  0  0  0  0  0  0
   16.3890  -15.6120    0.0000 Rh   0  0  0  0  0  0  0  0  0  0  0  0
   17.6567  -13.4042    0.0000 N    0  0  0  0  0  0  0  0  0  0  0  0
   17.6567  -14.7342    0.0000 N    0  0  0  0  0  0  0  0  0  0  0  0
   16.5048  -12.7392    0.0000 B    0  0  0  0  0  0  0  0  0  0  0  0
   15.3530  -13.4042    0.0000 N    0  0  0  0  0  0  0  0  0  0  0  0
   15.3530  -14.7342    0.0000 N    0  0  0  0  0  0  0  0  0  0  0  0
   18.9215  -12.9932    0.0000 C    0  0  0  0  0  0  0  0  0  0  0  0
   19.7033  -14.0692    0.0000 C    0  0  0  0  0  0  0  0  0  0  0  0
   18.9217  -15.1452    0.0000 C    0  0  0  0  0  0  0  0  0  0  0  0
   14.0881  -12.9932    0.0000 C    0  0  0  0  0  0  0  0  0  0  0  0
   13.3064  -14.0692    0.0000 C    0  0  0  0  0  0  0  0  0  0  0  0
   14.0880  -15.1452    0.0000 C    0  0  0  0  0  0  0  0  0  0  0  0
   14.4514   -9.0351    0.0000 C    0  0  0  0  0  0  0  0  0  0  0  0
   15.5281   -8.2543    0.0000 C    0  0  0  0  0  0  0  0  0  0  0  0
   14.8613  -10.3004    0.0000 N    0  0  0  0  0  0  0  0  0  0  0  0
   16.6033   -9.0370    0.0000 C    0  0  0  0  0  0  0  0  0  0  0  0
   16.1914  -10.3016    0.0000 N    0  0  0  0  0  0  0  0  0  0  0  0
   18.0271  -11.8418    0.0000 H    0  0  0  0  0  0  0  0  0  0  0  0
   13.1868   -8.6230    0.0000 C    0  0  0  0  0  0  0  0  0  0  0  0
   12.1976   -9.5122    0.0000 C    0  0  0  0  0  0  0  0  0  0  0  0
   12.9114   -7.3219    0.0000 C    0  0  0  0  0  0  0  0  0  0  0  0
   15.4472   -6.9384    0.0000 Br   0  0  0  0  0  0  0  0  0  0  0  0
  1  2  2  0  0  0  0
  2  3  1  0  0  0  0
  3  4  1  0  0  0  0
  1  5  1  0  0  0  0
  5  6  1  0  0  0  0
  6  4  2  0  0  0  0
  5  7  1  0  0  0  0
  3  7  1  0  0  0  0
  9 11  1  0  0  0  0
 11 12  1  0  0  0  0
  9 14  1  0  0  0  0
  9 10  1  0  0  0  0
 14 15  2  0  0  0  0
 10 16  2  0  0  0  0
 15 16  1  0  0  0  0
 12 17  1  0  0  0  0
 12 13  1  0  0  0  0
 17 18  2  0  0  0  0
 13 19  2  0  0  0  0
 18 19  1  0  0  0  0
 20 21  1  0  0  0  0
 20 22  2  0  0  0  0
 21 23  2  0  0  0  0
 22 24  1  0  0  0  0
 23 24  1  0  0  0  0
 11 24  1  0  0  0  0
 11 25  1  0  0  0  0
  8 10  1  0  0  0  0
  8 13  1  0  0  0  0
  8 22  1  0  0  0  0
 26 27  1  0  0  0  0
 26 28  1  0  0  0  0
 20 26  1  0  0  0  0
 21 29  1  0  0  0  0
  7  8  1  0  0  0  0
M  END
> <NMREDATA_VERSION>
1.1

> <NMREDATA_LEVEL>
0

> <NMREDATA_SOLVENT>
DCCl3

> <NMREDATA_TEMPERATURE>
298

> <NMREDATA_FORMULA>
C19H25BBrN6Rh

> <NMREDATA_SMILES>
CC(C1=N2N(C=C1Br)[BH]1N3N(=CC=C3)[Rh]2(C2C3C=CC2C=C3)N2=CC=CN12)C

> <NMREDATA_ASSIGNMENT>
Rh8, 1293.00, 8

> <NMREDATA_1D_103Rh>
1293.00, L=Rh8

$$$$

  ACD/LABS03082409552D

 28 32  0  0  0  0  0  0  0  0  1 V2000
    8.1218  -11.9034    0.0000 C    0  0  0  0  0  0  0  0  0  0  0  0
    9.1985  -11.1227    0.0000 C    0  0  0  0  0  0  0  0  0  0  0  0
    8.5317  -13.1687    0.0000 N    0  0  0  0  0  0  0  0  0  0  0  0
   10.2738  -11.9053    0.0000 C    0  0  0  0  0  0  0  0  0  0  0  0
    9.8619  -13.1699    0.0000 N    0  0  0  0  0  0  0  0  0  0  0  0
   11.5391  -11.4954    0.0000 C    0  0  0  0  0  0  0  0  0  0  0  0
   11.8234   -8.6826    0.0000 C    0  0  0  0  0  0  0  0  0  0  0  0
   12.9001   -7.9018    0.0000 C    0  0  0  0  0  0  0  0  0  0  0  0
   12.2333   -9.9479    0.0000 N    0  0  0  0  0  0  0  0  0  0  0  0
   13.9754   -8.6845    0.0000 C    0  0  0  0  0  0  0  0  0  0  0  0
   13.5635   -9.9490    0.0000 N    0  0  0  0  0  0  0  0  0  0  0  0
   15.2406   -8.2745    0.0000 C    0  0  0  0  0  0  0  0  0  0  0  0
   15.5730  -11.7432    0.0000 C    0  0  0  0  0  0  0  0  0  0  0  0
   16.6497  -10.9624    0.0000 C    0  0  0  0  0  0  0  0  0  0  0  0
   15.9830  -13.0085    0.0000 N    0  0  0  0  0  0  0  0  0  0  0  0
   17.7250  -11.7451    0.0000 C    0  0  0  0  0  0  0  0  0  0  0  0
   17.3131  -13.0096    0.0000 N    0  0  0  0  0  0  0  0  0  0  0  0
   14.4217  -19.8539    0.0000 C    0  0  0  0  0  0  0  0  0  0  0  0
   14.4377  -18.3796    0.0000 C    0  0  0  0  0  0  0  0  0  0  0  0
   16.3766  -17.5784    0.0000 C    0  0  0  0  0  0  0  0  0  0  0  0
   17.7227  -18.1874    0.0000 C    0  0  0  0  0  0  0  0  0  0  0  0
   16.0081  -19.1168    0.0000 C    0  0  0  0  0  0  0  0  0  0  0  0
   17.4663  -19.8058    0.0000 C    0  0  0  0  0  0  0  0  0  0  0  0
   16.0882  -16.8093    0.0000 C    0  0  0  0  0  0  0  0  0  0  0  0
   16.3890  -15.6120    0.0000 Rh   0  0  0  0  0  0  0  0  0  0  0  0
   15.2229  -15.1107    0.0000 B    0  0  0  0  0  0  0  0  0  0  0  0
   12.2264  -15.3190    0.0000 C    0  0  0  0  0  0  0  0  0  0  0  0
   18.9903  -11.3351    0.0000 C    0  0  0  0  0  0  0  0  0  0  0  0
  1  2  2  0  0  0  0
  1  3  1  0  0  0  0
  2  4  1  0  0  0  0
  3  5  1  0  0  0  0
  4  5  2  0  0  0  0
  4  6  1  0  0  0  0
  7  8  2  0  0  0  0
  7  9  1  0  0  0  0
  8 10  1  0  0  0  0
  9 11  1  0  0  0  0
 10 11  2  0  0  0  0
 10 12  1  0  0  0  0
 13 14  2  0  0  0  0
 13 15  1  0  0  0  0
 14 16  1  0  0  0  0
 15 17  1  0  0  0  0
 16 17  2  0  0  0  0
 18 19  2  0  0  0  0
 19 20  1  0  0  0  0
 20 21  1  0  0  0  0
 18 22  1  0  0  0  0
 22 23  1  0  0  0  0
 23 21  2  0  0  0  0
 22 24  1  0  0  0  0
 20 24  1  0  0  0  0
 24 25  1  0  0  0  0
 25 26  1  0  0  0  0
 26 27  1  0  0  0  0
 15 26  1  0  0  0  0
 16 28  1  0  0  0  0
  9 26  1  0  0  0  0
  3 26  1  0  0  0  0
M  END
> <NMREDATA_VERSION>
1.1

> <NMREDATA_LEVEL>
0

> <NMREDATA_SOLVENT>
DCCl3

> <NMREDATA_TEMPERATURE>
298

> <NMREDATA_FORMULA>
C20H25BN6Rh

> <NMREDATA_SMILES>
Cc1ccn(n1)[B](n1ccc(n1)C)(n1ccc(n1)C)([Rh]C1C2C=CC1C=C2)C

> <NMREDATA_ASSIGNMENT>
Rh25, 1475.00, 25

> <NMREDATA_1D_103Rh>
1475.00, L=Rh25

$$$$

  ACD/LABS03082410042D

 28 32  0  0  0  0  0  0  0  0  1 V2000
    5.5443  -19.1007    0.0000 C    0  0  0  0  0  0  0  0  0  0  0  0
    5.5123  -17.6265    0.0000 C    0  0  0  0  0  0  0  0  0  0  0  0
    7.3230  -16.8093    0.0000 C    0  0  0  0  0  0  0  0  0  0  0  0
    8.9094  -17.7387    0.0000 C    0  0  0  0  0  0  0  0  0  0  0  0
    6.9865  -18.4117    0.0000 C    0  0  0  0  0  0  0  0  0  0  0  0
    8.2845  -19.1328    0.0000 C    0  0  0  0  0  0  0  0  0  0  0  0
    7.0346  -15.8478    0.0000 C    0  0  0  0  0  0  0  0  0  0  0  0
   10.0561  -13.4905    0.0000 C    0  0  0  0  0  0  0  0  0  0  0  0
   11.1839  -14.3205    0.0000 C    0  0  0  0  0  0  0  0  0  0  0  0
    8.9160  -14.1487    0.0000 N    0  0  0  0  0  0  0  0  0  0  0  0
   10.6805  -15.6143    0.0000 C    0  0  0  0  0  0  0  0  0  0  0  0
    9.3099  -15.4650    0.0000 N    0  0  0  0  0  0  0  0  0  0  0  0
   10.5370  -12.2504    0.0000 C    0  0  0  0  0  0  0  0  0  0  0  0
    7.6219  -10.9670    0.0000 C    0  0  0  0  0  0  0  0  0  0  0  0
    6.6953   -9.9247    0.0000 C    0  0  0  0  0  0  0  0  0  0  0  0
    7.1092  -12.2227    0.0000 N    0  0  0  0  0  0  0  0  0  0  0  0
    5.4666  -10.5661    0.0000 C    0  0  0  0  0  0  0  0  0  0  0  0
    5.8006  -11.8743    0.0000 N    0  0  0  0  0  0  0  0  0  0  0  0
    8.8569  -10.4849    0.0000 C    0  0  0  0  0  0  0  0  0  0  0  0
    7.5403  -14.8373    0.0000 Rh   0  0  0  0  0  0  0  0  0  0  0  0
    7.6248  -13.5658    0.0000 B    0  0  0  0  0  0  0  0  0  0  0  0
    6.2092  -14.1005    0.0000 C    0  0  0  0  0  0  0  0  0  0  0  0
    5.7064  -15.3238    0.0000 C    0  0  0  0  0  0  0  0  0  0  0  0
    5.2412  -13.2753    0.0000 C    0  0  0  0  0  0  0  0  0  0  0  0
    4.4107  -15.5838    0.0000 C    0  0  0  0  0  0  0  0  0  0  0  0
    3.9429  -13.3659    0.0000 C    0  0  0  0  0  0  0  0  0  0  0  0
    3.4662  -14.6439    0.0000 C    0  0  0  0  0  0  0  0  0  0  0  0
    8.6039  -12.4536    0.0000 C    0  0  0  0  0  0  0  0  0  0  0  0
  1  2  2  0  0  0  0
  2  3  1  0  0  0  0
  3  4  1  0  0  0  0
  1  5  1  0  0  0  0
  5  6  1  0  0  0  0
  6  4  2  0  0  0  0
  5  7  1  0  0  0  0
  3  7  1  0  0  0  0
  8  9  2  0  0  0  0
  8 10  1  0  0  0  0
  9 11  1  0  0  0  0
 10 12  1  0  0  0  0
 11 12  2  0  0  0  0
  8 13  1  0  0  0  0
 14 15  2  0  0  0  0
 14 16  1  0  0  0  0
 15 17  1  0  0  0  0
 16 18  1  0  0  0  0
 17 18  2  0  0  0  0
 14 19  1  0  0  0  0
 20 21  1  0  0  0  0
 22 23  1  0  0  0  0
 22 24  2  0  0  0  0
 23 25  2  0  0  0  0
 24 26  1  0  0  0  0
 25 27  1  0  0  0  0
 26 27  2  0  0  0  0
 21 22  1  0  0  0  0
 21 28  1  0  0  0  0
 16 21  1  0  0  0  0
 10 21  1  0  0  0  0
  7 20  1  0  0  0  0
M  END
> <NMREDATA_VERSION>
1.1

> <NMREDATA_LEVEL>
0

> <NMREDATA_SOLVENT>
DCCl3

> <NMREDATA_TEMPERATURE>
298

> <NMREDATA_FORMULA>
C22H25BN4Rh

> <NMREDATA_SMILES>
Cc1ccnn1[B](n1nccc1C)(c1ccccc1)([Rh]C1C2C=CC1C=C2)C

> <NMREDATA_ASSIGNMENT>
Rh20, 1340.00, 20

> <NMREDATA_1D_103Rh>
1340.00, L=Rh20

$$$$

  ACD/LABS03082410052D

 29 34  0  0  0  0  0  0  0  0  1 V2000
    6.4295   -9.3485    0.0000 C    0  0  0  0  0  0  0  0  0  0  0  0
    5.2990   -8.5346    0.0000 C    0  0  0  0  0  0  0  0  0  0  0  0
    5.9956  -10.6765    0.0000 N    0  0  0  0  0  0  0  0  0  0  0  0
    4.1707   -9.3544    0.0000 C    0  0  0  0  0  0  0  0  0  0  0  0
    4.5996  -10.6761    0.0000 N    0  0  0  0  0  0  0  0  0  0  0  0
    2.7570  -16.4531    0.0000 C    0  0  0  0  0  0  0  0  0  0  0  0
    2.6322  -17.8416    0.0000 C    0  0  0  0  0  0  0  0  0  0  0  0
    5.3896  -17.7152    0.0000 C    0  0  0  0  0  0  0  0  0  0  0  0
    7.1821  -19.8564    0.0000 C    0  0  0  0  0  0  0  0  0  0  0  0
    5.5147  -16.3269    0.0000 C    0  0  0  0  0  0  0  0  0  0  0  0
    8.2486  -18.9580    0.0000 C    0  0  0  0  0  0  0  0  0  0  0  0
    6.9539  -15.3966    0.0000 C    0  0  0  0  0  0  0  0  0  0  0  0
    9.2010  -15.1694    0.0000 C    0  0  0  0  0  0  0  0  0  0  0  0
   10.5784  -15.4062    0.0000 C    0  0  0  0  0  0  0  0  0  0  0  0
    9.0086  -13.7909    0.0000 N    0  0  0  0  0  0  0  0  0  0  0  0
   11.2358  -14.1747    0.0000 C    0  0  0  0  0  0  0  0  0  0  0  0
   10.2585  -13.1699    0.0000 N    0  0  0  0  0  0  0  0  0  0  0  0
    5.3253  -12.7491    0.0000 C    0  0  0  0  0  0  0  0  0  0  0  0
    4.2018  -13.5606    0.0000 C    0  0  0  0  0  0  0  0  0  0  0  0
    6.4640  -13.5674    0.0000 N    0  0  0  0  0  0  0  0  0  0  0  0
    4.6388  -14.8870    0.0000 C    0  0  0  0  0  0  0  0  0  0  0  0
    6.0264  -14.8826    0.0000 N    0  0  0  0  0  0  0  0  0  0  0  0
    8.0155  -14.5064    0.0000 Rh   0  0  0  0  0  0  0  0  0  0  0  0
    7.7771  -13.1335    0.0000 B    0  0  0  0  0  0  0  0  0  0  0  0
    9.9868  -12.0037    0.0000 C    0  0  0  0  0  0  0  0  0  0  0  0
   10.4208  -10.6754    0.0000 C    0  0  0  0  0  0  0  0  0  0  0  0
    8.5989  -12.0079    0.0000 N    0  0  0  0  0  0  0  0  0  0  0  0
    9.2949   -9.8537    0.0000 C    0  0  0  0  0  0  0  0  0  0  0  0
    8.1749  -10.6783    0.0000 N    0  0  0  0  0  0  0  0  0  0  0  0
  1  2  2  0  0  0  0
  1  3  1  0  0  0  0
  2  4  1  0  0  0  0
  3  5  1  0  0  0  0
  4  5  2  0  0  0  0
  6  7  2  0  0  0  0
  7  8  1  0  0  0  0
  8  9  1  0  0  0  0
  6 10  1  0  0  0  0
 10 11  1  0  0  0  0
 11  9  2  0  0  0  0
 10 12  1  0  0  0  0
  8 12  1  0  0  0  0
 13 14  2  0  0  0  0
 13 15  1  0  0  0  0
 14 16  1  0  0  0  0
 15 17  1  0  0  0  0
 16 17  2  0  0  0  0
 18 19  2  0  0  0  0
 18 20  1  0  0  0  0
 19 21  1  0  0  0  0
 20 22  1  0  0  0  0
 21 22  2  0  0  0  0
 23 24  1  0  0  0  0
 20 24  1  0  0  0  0
 15 24  1  0  0  0  0
 12 23  1  0  0  0  0
  3 24  1  0  0  0  0
 25 26  2  0  0  0  0
 25 27  1  0  0  0  0
 26 28  1  0  0  0  0
 27 29  1  0  0  0  0
 28 29  2  0  0  0  0
 24 27  1  0  0  0  0
M  END
> <NMREDATA_VERSION>
1.1

> <NMREDATA_LEVEL>
0

> <NMREDATA_SOLVENT>
DCCl3

> <NMREDATA_TEMPERATURE>
298

> <NMREDATA_FORMULA>
C19H19BN8Rh

> <NMREDATA_SMILES>
c1cnn(c1)[B](n1cccn1)(n1cccn1)(n1cccn1)[Rh]C1C2C=CC1C=C2

> <NMREDATA_ASSIGNMENT>
Rh23, 979.00, 23

> <NMREDATA_1D_103Rh>
979.00, L=Rh23

$$$$
LaurenceCarlton-2008_00326.mol
  ChemDraw08132415172D

M  V30 COUNTS 28 29 0 0 0
 -4.968645 -1.218221  0.000000 Cl   0  0  0  0  0  0  0
 -5.356333 -0.546745  0.000000 O    0  0  0  0  0  0  0
 -5.640120 -1.605847  0.000000 O    0  0  0  0  0  0  0
 -4.297230 -0.830533  0.000000 O    0  0  0  0  0  0  0
 -4.581019 -1.889634  0.000000 O    0  5  0  0  0  0  0
  3.166721  0.096640  0.000000 C    0  0  0  0  0  0  0
  2.341721  0.097564  0.000000 N    0  0  0  0  0  0  0
  3.580021  0.810702  0.000000 C    0  0  0  0  0  0  0
  1.930022  0.812550  0.000000 C    0  0  0  0  0  0  0
  3.168322  1.525626  0.000000 C    0  0  0  0  0  0  0
  2.343322  1.526550  0.000000 C    0  0  0  0  0  0  0
  3.578421 -0.618284  0.000000 C    0  0  0  0  0  0  0
  4.403421 -0.619209  0.000000 C    0  0  0  0  0  0  0
  3.165121 -1.332347  0.000000 N    0  0  0  0  0  0  0
  4.815120 -1.334195  0.000000 C    0  0  0  0  0  0  0
  3.576821 -2.047271  0.000000 C    0  0  0  0  0  0  0
  4.401821 -2.048195  0.000000 C    0  0  0  0  0  0  0
  3.581622  2.239626  0.000000 C    0  0  0  0  0  0  0
  5.640120 -1.335119  0.000000 C    0  0  0  0  0  0  0
  1.247081 -1.300596  0.000000 Rh   0  3  0  0  0  0  0
 -0.612965 -2.239626  0.000000 C    0  0  0  0  0  0  0
 -1.437965 -2.239626  0.000000 C    0  0  0  0  0  0  0
 -0.029571 -1.656295  0.000000 C    0  0  0  0  0  0  0
 -0.029571 -0.831295  0.000000 C    0  0  0  0  0  0  0
 -2.021296 -1.656295  0.000000 C    0  0  0  0  0  0  0
 -0.612965 -0.247903  0.000000 C    0  0  0  0  0  0  0
 -2.021296 -0.831295  0.000000 C    0  0  0  0  0  0  0
 -1.437965 -0.247903  0.000000 C    0  0  0  0  0  0  0
  1  2  2  0  0  0  0
  1  3  2  0  0  0  0
  1  4  2  0  0  0  0
  1  5  1  0  0  0  0
  6  7  1  0  0  0  0
  6  8  2  0  0  0  0
  7  9  2  0  0  0  0
  8 10  1  0  0  0  0
  9 11  1  0  0  0  0
 10 11  2  0  0  0  0
 12 13  1  0  0  0  0
 12 14  2  0  0  0  0
 13 15  2  0  0  0  0
 14 16  1  0  0  0  0
 15 17  1  0  0  0  0
 16 17  2  0  0  0  0
  6 12  1  0  0  0  0
 10 18  1  0  0  0  0
 15 19  1  0  0  0  0
 14 20  1  0  0  0  0
  7 20  1  0  0  0  0
 21 22  1  0  0  0  0
 21 23  2  0  0  0  0
 22 25  1  0  0  0  0
 23 24  1  0  0  0  0
 24 26  1  0  0  0  0
 25 27  1  0  0  0  0
 26 28  1  0  0  0  0
 27 28  2  0  0  0  0
M  END
> <NMREDATA_VERSION>
1.1

> <NMREDATA_LEVEL>
0

> <NMREDATA_SOLVENT>
CD3OD

> <NMREDATA_TEMPERATURE>
298

> <NMREDATA_FORMULA>
C20H27ClN2O4Rh

> <NMREDATA_SMILES>
C1CC=CCCC=C1.O[Cl](=O)(=O)=O.CC1=CC=N2C(=C1)C1=N([Rh]2)C=CC(=C1)C

> <NMREDATA_ASSIGNMENT>
Rh20, 795.00, 20

> <NMREDATA_1D_103Rh>
795.00, L=Rh20

$$$$
LaurenceCarlton-2008_00331.mol
  ChemDraw08142417222D

M  V30 COUNTS 16 20 0 0 1
 -1.428989  2.306013  0.000000 C    0  0  0  0  0  0  0
 -0.714663  1.893507  0.000000 C    0  0  0  0  0  0  0
 -0.000151  2.306435  0.000000 C    0  0  0  0  0  0  0
  0.713933  1.893265  0.000000 C    0  0  0  0  0  0  0
  1.428989  2.305347  0.000000 C    0  0  0  0  0  0  0
 -0.714663  1.068373  0.000000 O    0  0  0  0  0  0  0
  0.715145  1.067950  0.000000 O    0  0  0  0  0  0  0
 -0.006815  0.479874  0.000000 Rh   0  0  0  0  0  0  0
 -0.863453 -0.616607  0.000000 C    0  0  0  0  0  0  0
 -1.054408 -1.399394  0.000000 C    0  0  0  0  0  0  0
 -0.163057 -0.212219  0.000000 C    0  0  0  0  0  0  0
  0.611974 -0.428863  0.000000 C    0  0  0  0  0  0  0
 -0.650928 -2.094093  0.000000 C    0  0  0  0  0  0  0
  1.022359 -1.119865  0.000000 C    0  0  0  0  0  0  0
  0.126162 -2.306435  0.000000 C    0  0  0  0  0  0  0
  0.823951 -1.901441  0.000000 C    0  0  0  0  0  0  0
  1  2  1  0  0  0  0
  2  3  2  0  0  0  0
  3  4  1  0  0  0  0
  4  5  1  0  0  0  0
  2  6  1  0  0  0  0
  4  7  2  0  0  0  0
  6  8  1  0  0  0  0
  7  8  1  0  0  0  0
  9 10  1  0  0  0  0
  9 11  1  0  0  0  0
 10 13  1  0  0  0  0
 11 12  1  0  0  0  0
 12 14  1  0  0  0  0
 13 15  1  0  0  0  0
 14 16  1  0  0  0  0
 15 16  1  0  0  0  0
 11  8  1  0  0  0  0
 12  8  1  0  0  0  0
 15  8  1  0  0  0  0
  8 13  1  0  0  0  0
M  END
> <NMREDATA_VERSION>
1.1

> <NMREDATA_LEVEL>
0

> <NMREDATA_SOLVENT>
CD2Cl2

> <NMREDATA_TEMPERATURE>
300

> <NMREDATA_FORMULA>
C13H19O2Rh

> <NMREDATA_SMILES>
CC1=CC(=[O][Rh]234(O1)C1C4CCC2C3CC1)C

> <NMREDATA_ASSIGNMENT>
Rh8, 1294.00, 8

> <NMREDATA_1D_103Rh>
1294.00, L=Rh8

$$$$
LaurenceCarlton-2008_00332.mol
  ChemDraw08142417222D

M  V30 COUNTS 16 20 0 0 1
 -1.428989  2.306013  0.000000 C    0  0  0  0  0  0  0
 -0.714663  1.893507  0.000000 C    0  0  0  0  0  0  0
 -0.000151  2.306435  0.000000 C    0  0  0  0  0  0  0
  0.713933  1.893265  0.000000 C    0  0  0  0  0  0  0
  1.428989  2.305347  0.000000 C    0  0  0  0  0  0  0
 -0.714663  1.068373  0.000000 O    0  0  0  0  0  0  0
  0.715145  1.067950  0.000000 O    0  0  0  0  0  0  0
 -0.006815  0.479874  0.000000 Rh   0  0  0  0  0  0  0
 -0.863453 -0.616607  0.000000 C    0  0  0  0  0  0  0
 -1.054408 -1.399394  0.000000 C    0  0  0  0  0  0  0
 -0.163057 -0.212219  0.000000 C    0  0  0  0  0  0  0
  0.611974 -0.428863  0.000000 C    0  0  0  0  0  0  0
 -0.650928 -2.094093  0.000000 C    0  0  0  0  0  0  0
  1.022359 -1.119865  0.000000 C    0  0  0  0  0  0  0
  0.126162 -2.306435  0.000000 C    0  0  0  0  0  0  0
  0.823951 -1.901441  0.000000 C    0  0  0  0  0  0  0
  1  2  1  0  0  0  0
  2  3  2  0  0  0  0
  3  4  1  0  0  0  0
  4  5  1  0  0  0  0
  2  6  1  0  0  0  0
  4  7  2  0  0  0  0
  6  8  1  0  0  0  0
  7  8  1  0  0  0  0
  9 10  1  0  0  0  0
  9 11  1  0  0  0  0
 10 13  1  0  0  0  0
 11 12  1  0  0  0  0
 12 14  1  0  0  0  0
 13 15  1  0  0  0  0
 14 16  1  0  0  0  0
 15 16  1  0  0  0  0
 11  8  1  0  0  0  0
 12  8  1  0  0  0  0
 15  8  1  0  0  0  0
  8 13  1  0  0  0  0
M  END
> <NMREDATA_VERSION>
1.1

> <NMREDATA_LEVEL>
0

> <NMREDATA_SOLVENT>
DCCl3

> <NMREDATA_TEMPERATURE>
298

> <NMREDATA_FORMULA>
C13H19O2Rh

> <NMREDATA_SMILES>
CC1=CC(=[O][Rh]234(O1)C1C4CCC2C3CC1)C

> <NMREDATA_ASSIGNMENT>
Rh8, 1287.00, 8

> <NMREDATA_1D_103Rh>
1287.00, L=Rh8

$$$$
LaurenceCarlton-2008_00333.mol
  ChemDraw08142417222D

M  V30 COUNTS 15 19 0 0 1
 -1.633240  2.100553  0.000000 C    0  0  0  0  0  0  0
 -0.918808  1.687985  0.000000 C    0  0  0  0  0  0  0
 -0.204193  2.100976  0.000000 C    0  0  0  0  0  0  0
  0.509998  1.687742  0.000000 C    0  0  0  0  0  0  0
  1.225157  2.099886  0.000000 C    0  0  0  0  0  0  0
 -0.918808  0.862730  0.000000 O    0  0  0  0  0  0  0
  0.511208  0.862307  0.000000 O    0  0  0  0  0  0  0
 -0.210858  0.274145  0.000000 Rh   0  0  0  0  0  0  0
 -0.177594 -1.469795  0.000000 C    0  0  0  0  0  0  0
  0.002544 -0.684288  0.000000 C    0  0  0  0  0  0  0
  0.324285 -2.100310  0.000000 C    0  0  0  0  0  0  0
  0.728914 -0.335282  0.000000 C    0  0  0  0  0  0  0
  1.130151 -2.100976  0.000000 C    0  0  0  0  0  0  0
  1.633240 -1.471432  0.000000 C    0  0  0  0  0  0  0
  1.454678 -0.685561  0.000000 C    0  0  0  0  0  0  0
  1  2  1  0  0  0  0
  2  3  2  0  0  0  0
  3  4  1  0  0  0  0
  4  5  1  0  0  0  0
  2  6  1  0  0  0  0
  4  7  2  0  0  0  0
  6  8  1  0  0  0  0
  7  8  1  0  0  0  0
  9 10  1  0  0  0  0
  9 11  1  0  0  0  0
 10 12  1  0  0  0  0
 11 13  1  0  0  0  0
 12 15  1  0  0  0  0
 13 14  1  0  0  0  0
 14 15  1  0  0  0  0
 13  8  1  0  0  0  0
 12  8  1  0  0  0  0
 15  8  1  0  0  0  0
 14  8  1  0  0  0  0
M  END
> <NMREDATA_VERSION>
1.1

> <NMREDATA_LEVEL>
0

> <NMREDATA_SOLVENT>
CD2Cl2

> <NMREDATA_TEMPERATURE>
300

> <NMREDATA_FORMULA>
C12H17O2Rh

> <NMREDATA_SMILES>
CC1=CC(=[O][Rh]234(O1)C1C4C3C2CCC1)C

> <NMREDATA_ASSIGNMENT>
Rh8, 1195.00, 8

> <NMREDATA_1D_103Rh>
1195.00, L=Rh8

$$$$
LaurenceCarlton-2008_00334.mol
  ChemDraw08142417232D

M  V30 COUNTS 16 20 0 0 0
 -1.399661  2.306972  0.000000 C    0  0  0  0  0  0  0
 -0.685337  1.894467  0.000000 C    0  0  0  0  0  0  0
  0.029170  2.307396  0.000000 C    0  0  0  0  0  0  0
  0.743253  1.894224  0.000000 C    0  0  0  0  0  0  0
  1.458306  2.306306  0.000000 C    0  0  0  0  0  0  0
 -0.685337  1.069337  0.000000 O    0  0  0  0  0  0  0
  0.744465  1.068913  0.000000 O    0  0  0  0  0  0  0
  0.022506  0.480841  0.000000 Rh   0  0  0  0  0  0  0
  0.419039 -2.307396  0.000000 C    0  0  0  0  0  0  0
 -0.382899 -1.497908  0.000000 C    0  0  0  0  0  0  0
  0.422825 -1.501641  0.000000 C    0  0  0  0  0  0  0
 -0.386684 -2.303662  0.000000 C    0  0  0  0  0  0  0
  0.995260 -0.934593  0.000000 C    0  0  0  0  0  0  0
  1.532553 -0.980301  0.000000 C    0  0  0  0  0  0  0
 -0.930532 -1.056704  0.000000 C    0  0  0  0  0  0  0
 -1.532553 -1.094884  0.000000 C    0  0  0  0  0  0  0
  1  2  1  0  0  0  0
  2  3  2  0  0  0  0
  3  4  1  0  0  0  0
  4  5  1  0  0  0  0
  2  6  1  0  0  0  0
  4  7  2  0  0  0  0
  6  8  1  0  0  0  0
  7  8  1  0  0  0  0
  9 11  1  0  0  0  0
  9 12  1  0  0  0  0
 10 12  1  0  0  0  0
 10 11  1  0  0  0  0
 11 13  1  0  0  0  0
 13 14  1  0  0  0  0
 10 15  1  0  0  0  0
 15 16  1  0  0  0  0
 16  8  1  0  0  0  0
 15  8  1  0  0  0  0
 13  8  1  0  0  0  0
 14  8  1  0  0  0  0
M  END
> <NMREDATA_VERSION>
1.1

> <NMREDATA_LEVEL>
0

> <NMREDATA_SOLVENT>
CD2Cl2

> <NMREDATA_TEMPERATURE>
310

> <NMREDATA_FORMULA>
C13H19O2Rh

> <NMREDATA_SMILES>
CC1=CC(=[O][Rh]234(O1)CC4C1C(C3C2)CC1)C

> <NMREDATA_ASSIGNMENT>
Rh8, -1393.00, 8

> <NMREDATA_1D_103Rh>
-1393.00, L=Rh8

$$$$

  ACD/LABS03092411022D

 43 48  0  0  0  0  0  0  0  0  1 V2000
   11.8399  -15.1668    0.0000 C    0  0  0  0  0  0  0  0  0  0  0  0
   11.8399  -16.4968    0.0000 C    0  0  0  0  0  0  0  0  0  0  0  0
   10.6880  -14.5018    0.0000 C    0  0  0  0  0  0  0  0  0  0  0  0
   10.6880  -17.1618    0.0000 C    0  0  0  0  0  0  0  0  0  0  0  0
    9.5362  -15.1668    0.0000 C    0  0  0  0  0  0  0  0  0  0  0  0
    9.5362  -16.4968    0.0000 C    0  0  0  0  0  0  0  0  0  0  0  0
   14.3736  -10.1913    0.0000 Rh   0  0  0  0  0  0  0  0  0  0  0  0
   15.7036  -10.1913    0.0000 C    0  0  0  0  0  0  0  0  0  0  0  0
   17.0336  -10.1913    0.0000 N    0  0  0  0  0  0  0  0  0  0  0  0
   12.7712   -9.0376    0.0000 C    0  0  0  0  0  0  0  0  0  0  0  0
   12.6911   -7.0025    0.0000 O    0  0  0  0  0  0  0  0  0  0  0  0
   13.2840  -11.9700    0.0000 P    0  0  0  0  0  0  0  0  0  0  0  0
   11.9544  -11.9354    0.0000 C    0  0  0  0  0  0  0  0  0  0  0  0
   11.2596  -13.0695    0.0000 C    0  0  0  0  0  0  0  0  0  0  0  0
   11.3196  -10.7666    0.0000 C    0  0  0  0  0  0  0  0  0  0  0  0
    9.9300  -13.0348    0.0000 C    0  0  0  0  0  0  0  0  0  0  0  0
    9.9901  -10.7319    0.0000 C    0  0  0  0  0  0  0  0  0  0  0  0
    9.2953  -11.8660    0.0000 C    0  0  0  0  0  0  0  0  0  0  0  0
   13.9188  -13.1387    0.0000 C    0  0  0  0  0  0  0  0  0  0  0  0
   15.2483  -13.1734    0.0000 C    0  0  0  0  0  0  0  0  0  0  0  0
   13.2240  -14.2729    0.0000 C    0  0  0  0  0  0  0  0  0  0  0  0
   15.8831  -14.3422    0.0000 C    0  0  0  0  0  0  0  0  0  0  0  0
   13.8588  -15.4416    0.0000 C    0  0  0  0  0  0  0  0  0  0  0  0
   15.1883  -15.4763    0.0000 C    0  0  0  0  0  0  0  0  0  0  0  0
   17.4022   -7.6755    0.0000 P    0  0  0  0  0  0  0  0  0  0  0  0
   18.6497   -8.1366    0.0000 C    0  0  0  0  0  0  0  0  0  0  0  0
   19.6728   -7.2868    0.0000 C    0  0  0  0  0  0  0  0  0  0  0  0
   18.8742   -9.4476    0.0000 C    0  0  0  0  0  0  0  0  0  0  0  0
   20.9203   -7.7480    0.0000 C    0  0  0  0  0  0  0  0  0  0  0  0
   20.1217   -9.9087    0.0000 C    0  0  0  0  0  0  0  0  0  0  0  0
   21.1448   -9.0589    0.0000 C    0  0  0  0  0  0  0  0  0  0  0  0
   17.1777   -6.3646    0.0000 C    0  0  0  0  0  0  0  0  0  0  0  0
   15.9302   -5.9035    0.0000 C    0  0  0  0  0  0  0  0  0  0  0  0
   18.2008   -5.5147    0.0000 C    0  0  0  0  0  0  0  0  0  0  0  0
   15.7058   -4.5925    0.0000 C    0  0  0  0  0  0  0  0  0  0  0  0
   17.9764   -4.2038    0.0000 C    0  0  0  0  0  0  0  0  0  0  0  0
   16.7289   -3.7427    0.0000 C    0  0  0  0  0  0  0  0  0  0  0  0
   21.6787   -4.8954    0.0000 C    0  0  0  0  0  0  0  0  0  0  0  0
   21.6787   -6.2254    0.0000 C    0  0  0  0  0  0  0  0  0  0  0  0
   20.5268   -4.2304    0.0000 C    0  0  0  0  0  0  0  0  0  0  0  0
   20.5268   -6.8904    0.0000 C    0  0  0  0  0  0  0  0  0  0  0  0
   19.3750   -4.8954    0.0000 C    0  0  0  0  0  0  0  0  0  0  0  0
   19.3750   -6.2254    0.0000 C    0  0  0  0  0  0  0  0  0  0  0  0
  1  2  1  0  0  0  0
  1  3  2  0  0  0  0
  2  4  2  0  0  0  0
  3  5  1  0  0  0  0
  4  6  1  0  0  0  0
  5  6  2  0  0  0  0
  8  9  3  0  0  0  0
  7  8  1  0  0  0  0
  7 10  2  0  0  0  0
 10 11  2  0  0  0  0
  7 12  1  0  0  0  0
 13 14  1  0  0  0  0
 13 15  2  0  0  0  0
 14 16  2  0  0  0  0
 15 17  1  0  0  0  0
 16 18  1  0  0  0  0
 17 18  2  0  0  0  0
 12 13  1  0  0  0  0
 19 20  1  0  0  0  0
 19 21  2  0  0  0  0
 20 22  2  0  0  0  0
 21 23  1  0  0  0  0
 22 24  1  0  0  0  0
 23 24  2  0  0  0  0
 12 19  1  0  0  0  0
  7 25  1  0  0  0  0
 26 27  1  0  0  0  0
 26 28  2  0  0  0  0
 27 29  2  0  0  0  0
 28 30  1  0  0  0  0
 29 31  1  0  0  0  0
 30 31  2  0  0  0  0
 25 26  1  0  0  0  0
 32 33  1  0  0  0  0
 32 34  2  0  0  0  0
 33 35  2  0  0  0  0
 34 36  1  0  0  0  0
 35 37  1  0  0  0  0
 36 37  2  0  0  0  0
 25 32  1  0  0  0  0
  1 12  1  0  0  0  0
 38 39  1  0  0  0  0
 38 40  2  0  0  0  0
 39 41  2  0  0  0  0
 40 42  1  0  0  0  0
 41 43  1  0  0  0  0
 42 43  2  0  0  0  0
 25 43  1  0  0  0  0
M  END
> <NMREDATA_VERSION>
1.1

> <NMREDATA_LEVEL>
0

> <NMREDATA_SOLVENT>
DCCl3

> <NMREDATA_TEMPERATURE>
247

> <NMREDATA_FORMULA>
C38H32NOP2Rh

> <NMREDATA_SMILES>
O=C=[Rh](P(c1ccccc1)(c1ccccc1)c1ccccc1)(P(c1ccccc1)(c1ccccc1)c1ccccc1)C#N

> <NMREDATA_ASSIGNMENT>
Rh7, -787.00, 7

> <NMREDATA_1D_103Rh>
-787.00, L=Rh7

$$$$

  ACD/LABS03092411032D

 60 68  0  0  0  0  0  0  0  0  1 V2000
   11.3911   -7.8984    0.0000 P    0  0  0  0  0  0  0  0  0  0  0  0
   10.7261   -6.7466    0.0000 C    0  0  0  0  0  0  0  0  0  0  0  0
   11.3916   -5.5947    0.0000 C    0  0  0  0  0  0  0  0  0  0  0  0
    9.3955   -6.7472    0.0000 C    0  0  0  0  0  0  0  0  0  0  0  0
   10.7266   -4.4429    0.0000 C    0  0  0  0  0  0  0  0  0  0  0  0
    8.7305   -5.5954    0.0000 C    0  0  0  0  0  0  0  0  0  0  0  0
    9.3963   -4.4433    0.0000 C    0  0  0  0  0  0  0  0  0  0  0  0
   12.0559   -9.0498    0.0000 C    0  0  0  0  0  0  0  0  0  0  0  0
   13.3864   -9.0498    0.0000 C    0  0  0  0  0  0  0  0  0  0  0  0
   11.3903  -10.2022    0.0000 C    0  0  0  0  0  0  0  0  0  0  0  0
   14.0466  -10.1932    0.0000 C    0  0  0  0  0  0  0  0  0  0  0  0
   12.0504  -11.3457    0.0000 C    0  0  0  0  0  0  0  0  0  0  0  0
   13.3811  -11.3450    0.0000 C    0  0  0  0  0  0  0  0  0  0  0  0
    7.9361   -9.8931    0.0000 C    0  0  0  0  0  0  0  0  0  0  0  0
    7.9354   -8.5625    0.0000 C    0  0  0  0  0  0  0  0  0  0  0  0
    9.0835  -10.5510    0.0000 C    0  0  0  0  0  0  0  0  0  0  0  0
    9.0873   -7.8975    0.0000 C    0  0  0  0  0  0  0  0  0  0  0  0
   10.2353   -9.8860    0.0000 C    0  0  0  0  0  0  0  0  0  0  0  0
   10.2393   -8.5634    0.0000 C    0  0  0  0  0  0  0  0  0  0  0  0
   15.9531  -12.6446    0.0000 C    0  0  0  0  0  0  0  0  0  0  0  0
   16.1803  -11.3363    0.0000 C    0  0  0  0  0  0  0  0  0  0  0  0
   16.9776  -13.4969    0.0000 C    0  0  0  0  0  0  0  0  0  0  0  0
   17.4241  -10.8844    0.0000 C    0  0  0  0  0  0  0  0  0  0  0  0
   18.2214  -13.0449    0.0000 C    0  0  0  0  0  0  0  0  0  0  0  0
   18.4484  -11.7363    0.0000 C    0  0  0  0  0  0  0  0  0  0  0  0
   12.6380   -7.4340    0.0000 Rh   0  0  0  0  0  0  0  0  0  0  0  0
   12.3971   -6.1298    0.0000 C    0  0  0  0  0  0  0  0  0  0  0  0
   12.1554   -4.8261    0.0000 N    0  0  0  0  0  0  0  0  0  0  0  0
   14.7095  -13.0969    0.0000 P    0  0  0  0  0  0  0  0  0  0  0  0
   13.4580  -13.5532    0.0000 C    0  0  0  0  0  0  0  0  0  0  0  0
   13.2305  -14.8617    0.0000 C    0  0  0  0  0  0  0  0  0  0  0  0
   12.4379  -12.7085    0.0000 C    0  0  0  0  0  0  0  0  0  0  0  0
   11.9834  -15.3256    0.0000 C    0  0  0  0  0  0  0  0  0  0  0  0
   11.1943  -13.1608    0.0000 C    0  0  0  0  0  0  0  0  0  0  0  0
   10.9591  -14.4737    0.0000 C    0  0  0  0  0  0  0  0  0  0  0  0
   15.1658  -14.3483    0.0000 C    0  0  0  0  0  0  0  0  0  0  0  0
   16.4745  -14.5753    0.0000 C    0  0  0  0  0  0  0  0  0  0  0  0
   14.3095  -15.3650    0.0000 C    0  0  0  0  0  0  0  0  0  0  0  0
   16.9310  -15.8271    0.0000 C    0  0  0  0  0  0  0  0  0  0  0  0
   14.7658  -16.6164    0.0000 C    0  0  0  0  0  0  0  0  0  0  0  0
   16.0741  -16.8436    0.0000 C    0  0  0  0  0  0  0  0  0  0  0  0
   15.3548   -6.4492    0.0000 P    0  0  0  0  0  0  0  0  0  0  0  0
   15.8071   -7.6928    0.0000 C    0  0  0  0  0  0  0  0  0  0  0  0
   17.1200   -7.9280    0.0000 C    0  0  0  0  0  0  0  0  0  0  0  0
   14.9548   -8.7173    0.0000 C    0  0  0  0  0  0  0  0  0  0  0  0
   17.5673   -9.1639    0.0000 C    0  0  0  0  0  0  0  0  0  0  0  0
   15.4065   -9.9608    0.0000 C    0  0  0  0  0  0  0  0  0  0  0  0
   16.7153  -10.1881    0.0000 C    0  0  0  0  0  0  0  0  0  0  0  0
   14.8984   -5.1978    0.0000 C    0  0  0  0  0  0  0  0  0  0  0  0
   13.5900   -4.9702    0.0000 C    0  0  0  0  0  0  0  0  0  0  0  0
   15.7431   -4.1777    0.0000 C    0  0  0  0  0  0  0  0  0  0  0  0
   13.1260   -3.7231    0.0000 C    0  0  0  0  0  0  0  0  0  0  0  0
   15.2862   -2.9260    0.0000 C    0  0  0  0  0  0  0  0  0  0  0  0
   13.9779   -2.6988    0.0000 C    0  0  0  0  0  0  0  0  0  0  0  0
   19.0975   -5.0768    0.0000 C    0  0  0  0  0  0  0  0  0  0  0  0
   18.8703   -6.3850    0.0000 C    0  0  0  0  0  0  0  0  0  0  0  0
   18.0810   -4.2199    0.0000 C    0  0  0  0  0  0  0  0  0  0  0  0
   17.6189   -6.8414    0.0000 C    0  0  0  0  0  0  0  0  0  0  0  0
   16.8292   -4.6764    0.0000 C    0  0  0  0  0  0  0  0  0  0  0  0
   16.6022   -5.9850    0.0000 C    0  0  0  0  0  0  0  0  0  0  0  0
  2  3  1  0  0  0  0
  2  4  2  0  0  0  0
  3  5  2  0  0  0  0
  4  6  1  0  0  0  0
  5  7  1  0  0  0  0
  6  7  2  0  0  0  0
  1  2  1  0  0  0  0
  8  9  1  0  0  0  0
  8 10  2  0  0  0  0
  9 11  2  0  0  0  0
 10 12  1  0  0  0  0
 11 13  1  0  0  0  0
 12 13  2  0  0  0  0
  1  8  1  0  0  0  0
 14 15  1  0  0  0  0
 14 16  2  0  0  0  0
 15 17  2  0  0  0  0
 16 18  1  0  0  0  0
 17 19  1  0  0  0  0
 18 19  2  0  0  0  0
  1 19  1  0  0  0  0
 20 21  1  0  0  0  0
 20 22  2  0  0  0  0
 21 23  2  0  0  0  0
 22 24  1  0  0  0  0
 23 25  1  0  0  0  0
 24 25  2  0  0  0  0
 27 28  3  0  0  0  0
 26 27  1  0  0  0  0
 26 29  1  0  0  0  0
 30 31  1  0  0  0  0
 30 32  2  0  0  0  0
 31 33  2  0  0  0  0
 32 34  1  0  0  0  0
 33 35  1  0  0  0  0
 34 35  2  0  0  0  0
 29 30  1  0  0  0  0
 36 37  1  0  0  0  0
 36 38  2  0  0  0  0
 37 39  2  0  0  0  0
 38 40  1  0  0  0  0
 39 41  1  0  0  0  0
 40 41  2  0  0  0  0
 29 36  1  0  0  0  0
 26 42  1  0  0  0  0
 43 44  1  0  0  0  0
 43 45  2  0  0  0  0
 44 46  2  0  0  0  0
 45 47  1  0  0  0  0
 46 48  1  0  0  0  0
 47 48  2  0  0  0  0
 42 43  1  0  0  0  0
 49 50  1  0  0  0  0
 49 51  2  0  0  0  0
 50 52  2  0  0  0  0
 51 53  1  0  0  0  0
 52 54  1  0  0  0  0
 53 54  2  0  0  0  0
 42 49  1  0  0  0  0
 20 29  1  0  0  0  0
 55 56  1  0  0  0  0
 55 57  2  0  0  0  0
 56 58  2  0  0  0  0
 57 59  1  0  0  0  0
 58 60  1  0  0  0  0
 59 60  2  0  0  0  0
 42 60  1  0  0  0  0
  1 26  1  0  0  0  0
M  END
> <NMREDATA_VERSION>
1.1

> <NMREDATA_LEVEL>
0

> <NMREDATA_SOLVENT>
DCCl3

> <NMREDATA_TEMPERATURE>
300

> <NMREDATA_FORMULA>
C55H48NP3Rh

> <NMREDATA_SMILES>
N#C[Rh](P(c1ccccc1)(c1ccccc1)c1ccccc1)(P(c1ccccc1)(c1ccccc1)c1ccccc1)P(c1ccccc1)(c1ccccc1)c1ccccc1

> <NMREDATA_ASSIGNMENT>
Rh26, -449.00, 26

> <NMREDATA_1D_103Rh>
-449.00, L=Rh26

$$$$

  ACD/LABS03092411032D

 60 68  0  0  0  0  0  0  0  0  1 V2000
   11.3911   -7.8984    0.0000 P    0  0  0  0  0  0  0  0  0  0  0  0
   10.7261   -6.7466    0.0000 C    0  0  0  0  0  0  0  0  0  0  0  0
   11.3916   -5.5947    0.0000 C    0  0  0  0  0  0  0  0  0  0  0  0
    9.3955   -6.7472    0.0000 C    0  0  0  0  0  0  0  0  0  0  0  0
   10.7266   -4.4429    0.0000 C    0  0  0  0  0  0  0  0  0  0  0  0
    8.7305   -5.5954    0.0000 C    0  0  0  0  0  0  0  0  0  0  0  0
    9.3963   -4.4433    0.0000 C    0  0  0  0  0  0  0  0  0  0  0  0
   12.0559   -9.0498    0.0000 C    0  0  0  0  0  0  0  0  0  0  0  0
   13.3864   -9.0498    0.0000 C    0  0  0  0  0  0  0  0  0  0  0  0
   11.3903  -10.2022    0.0000 C    0  0  0  0  0  0  0  0  0  0  0  0
   14.0466  -10.1932    0.0000 C    0  0  0  0  0  0  0  0  0  0  0  0
   12.0504  -11.3457    0.0000 C    0  0  0  0  0  0  0  0  0  0  0  0
   13.3811  -11.3450    0.0000 C    0  0  0  0  0  0  0  0  0  0  0  0
    7.9361   -9.8931    0.0000 C    0  0  0  0  0  0  0  0  0  0  0  0
    7.9354   -8.5625    0.0000 C    0  0  0  0  0  0  0  0  0  0  0  0
    9.0835  -10.5510    0.0000 C    0  0  0  0  0  0  0  0  0  0  0  0
    9.0873   -7.8975    0.0000 C    0  0  0  0  0  0  0  0  0  0  0  0
   10.2353   -9.8860    0.0000 C    0  0  0  0  0  0  0  0  0  0  0  0
   10.2393   -8.5634    0.0000 C    0  0  0  0  0  0  0  0  0  0  0  0
   15.9531  -12.6446    0.0000 C    0  0  0  0  0  0  0  0  0  0  0  0
   16.1803  -11.3363    0.0000 C    0  0  0  0  0  0  0  0  0  0  0  0
   16.9776  -13.4969    0.0000 C    0  0  0  0  0  0  0  0  0  0  0  0
   17.4241  -10.8844    0.0000 C    0  0  0  0  0  0  0  0  0  0  0  0
   18.2214  -13.0449    0.0000 C    0  0  0  0  0  0  0  0  0  0  0  0
   18.4484  -11.7363    0.0000 C    0  0  0  0  0  0  0  0  0  0  0  0
   12.6380   -7.4340    0.0000 Rh   0  0  0  0  0  0  0  0  0  0  0  0
   12.3971   -6.1298    0.0000 C    0  0  0  0  0  0  0  0  0  0  0  0
   12.1554   -4.8261    0.0000 N    0  0  0  0  0  0  0  0  0  0  0  0
   14.7095  -13.0969    0.0000 P    0  0  0  0  0  0  0  0  0  0  0  0
   13.4580  -13.5532    0.0000 C    0  0  0  0  0  0  0  0  0  0  0  0
   13.2305  -14.8617    0.0000 C    0  0  0  0  0  0  0  0  0  0  0  0
   12.4379  -12.7085    0.0000 C    0  0  0  0  0  0  0  0  0  0  0  0
   11.9834  -15.3256    0.0000 C    0  0  0  0  0  0  0  0  0  0  0  0
   11.1943  -13.1608    0.0000 C    0  0  0  0  0  0  0  0  0  0  0  0
   10.9591  -14.4737    0.0000 C    0  0  0  0  0  0  0  0  0  0  0  0
   15.1658  -14.3483    0.0000 C    0  0  0  0  0  0  0  0  0  0  0  0
   16.4745  -14.5753    0.0000 C    0  0  0  0  0  0  0  0  0  0  0  0
   14.3095  -15.3650    0.0000 C    0  0  0  0  0  0  0  0  0  0  0  0
   16.9310  -15.8271    0.0000 C    0  0  0  0  0  0  0  0  0  0  0  0
   14.7658  -16.6164    0.0000 C    0  0  0  0  0  0  0  0  0  0  0  0
   16.0741  -16.8436    0.0000 C    0  0  0  0  0  0  0  0  0  0  0  0
   15.3548   -6.4492    0.0000 P    0  0  0  0  0  0  0  0  0  0  0  0
   15.8071   -7.6928    0.0000 C    0  0  0  0  0  0  0  0  0  0  0  0
   17.1200   -7.9280    0.0000 C    0  0  0  0  0  0  0  0  0  0  0  0
   14.9548   -8.7173    0.0000 C    0  0  0  0  0  0  0  0  0  0  0  0
   17.5673   -9.1639    0.0000 C    0  0  0  0  0  0  0  0  0  0  0  0
   15.4065   -9.9608    0.0000 C    0  0  0  0  0  0  0  0  0  0  0  0
   16.7153  -10.1881    0.0000 C    0  0  0  0  0  0  0  0  0  0  0  0
   14.8984   -5.1978    0.0000 C    0  0  0  0  0  0  0  0  0  0  0  0
   13.5900   -4.9702    0.0000 C    0  0  0  0  0  0  0  0  0  0  0  0
   15.7431   -4.1777    0.0000 C    0  0  0  0  0  0  0  0  0  0  0  0
   13.1260   -3.7231    0.0000 C    0  0  0  0  0  0  0  0  0  0  0  0
   15.2862   -2.9260    0.0000 C    0  0  0  0  0  0  0  0  0  0  0  0
   13.9779   -2.6988    0.0000 C    0  0  0  0  0  0  0  0  0  0  0  0
   19.0975   -5.0768    0.0000 C    0  0  0  0  0  0  0  0  0  0  0  0
   18.8703   -6.3850    0.0000 C    0  0  0  0  0  0  0  0  0  0  0  0
   18.0810   -4.2199    0.0000 C    0  0  0  0  0  0  0  0  0  0  0  0
   17.6189   -6.8414    0.0000 C    0  0  0  0  0  0  0  0  0  0  0  0
   16.8292   -4.6764    0.0000 C    0  0  0  0  0  0  0  0  0  0  0  0
   16.6022   -5.9850    0.0000 C    0  0  0  0  0  0  0  0  0  0  0  0
  2  3  1  0  0  0  0
  2  4  2  0  0  0  0
  3  5  2  0  0  0  0
  4  6  1  0  0  0  0
  5  7  1  0  0  0  0
  6  7  2  0  0  0  0
  1  2  1  0  0  0  0
  8  9  1  0  0  0  0
  8 10  2  0  0  0  0
  9 11  2  0  0  0  0
 10 12  1  0  0  0  0
 11 13  1  0  0  0  0
 12 13  2  0  0  0  0
  1  8  1  0  0  0  0
 14 15  1  0  0  0  0
 14 16  2  0  0  0  0
 15 17  2  0  0  0  0
 16 18  1  0  0  0  0
 17 19  1  0  0  0  0
 18 19  2  0  0  0  0
  1 19  1  0  0  0  0
 20 21  1  0  0  0  0
 20 22  2  0  0  0  0
 21 23  2  0  0  0  0
 22 24  1  0  0  0  0
 23 25  1  0  0  0  0
 24 25  2  0  0  0  0
 27 28  3  0  0  0  0
 26 27  1  0  0  0  0
 26 29  1  0  0  0  0
 30 31  1  0  0  0  0
 30 32  2  0  0  0  0
 31 33  2  0  0  0  0
 32 34  1  0  0  0  0
 33 35  1  0  0  0  0
 34 35  2  0  0  0  0
 29 30  1  0  0  0  0
 36 37  1  0  0  0  0
 36 38  2  0  0  0  0
 37 39  2  0  0  0  0
 38 40  1  0  0  0  0
 39 41  1  0  0  0  0
 40 41  2  0  0  0  0
 29 36  1  0  0  0  0
 26 42  1  0  0  0  0
 43 44  1  0  0  0  0
 43 45  2  0  0  0  0
 44 46  2  0  0  0  0
 45 47  1  0  0  0  0
 46 48  1  0  0  0  0
 47 48  2  0  0  0  0
 42 43  1  0  0  0  0
 49 50  1  0  0  0  0
 49 51  2  0  0  0  0
 50 52  2  0  0  0  0
 51 53  1  0  0  0  0
 52 54  1  0  0  0  0
 53 54  2  0  0  0  0
 42 49  1  0  0  0  0
 20 29  1  0  0  0  0
 55 56  1  0  0  0  0
 55 57  2  0  0  0  0
 56 58  2  0  0  0  0
 57 59  1  0  0  0  0
 58 60  1  0  0  0  0
 59 60  2  0  0  0  0
 42 60  1  0  0  0  0
  1 26  1  0  0  0  0
M  END
> <NMREDATA_VERSION>
1.1

> <NMREDATA_LEVEL>
0

> <NMREDATA_SOLVENT>
DCCl3

> <NMREDATA_TEMPERATURE>
247

> <NMREDATA_FORMULA>
C55H48NP3Rh

> <NMREDATA_SMILES>
N#C[Rh](P(c1ccccc1)(c1ccccc1)c1ccccc1)(P(c1ccccc1)(c1ccccc1)c1ccccc1)P(c1ccccc1)(c1ccccc1)c1ccccc1

> <NMREDATA_ASSIGNMENT>
Rh26, -427.00, 26

> <NMREDATA_1D_103Rh>
-427.00, L=Rh26

$$$$

  ACD/LABS03092411042D

 47 53  0  0  0  0  0  0  0  0  1 V2000
   11.3911   -7.8984    0.0000 P    0  0  0  0  0  0  0  0  0  0  0  0
   10.7261   -6.7466    0.0000 C    0  0  0  0  0  0  0  0  0  0  0  0
   11.3916   -5.5947    0.0000 C    0  0  0  0  0  0  0  0  0  0  0  0
    9.3955   -6.7472    0.0000 C    0  0  0  0  0  0  0  0  0  0  0  0
   10.7266   -4.4429    0.0000 C    0  0  0  0  0  0  0  0  0  0  0  0
    8.7305   -5.5954    0.0000 C    0  0  0  0  0  0  0  0  0  0  0  0
    9.3963   -4.4433    0.0000 C    0  0  0  0  0  0  0  0  0  0  0  0
   12.0559   -9.0498    0.0000 C    0  0  0  0  0  0  0  0  0  0  0  0
   13.3864   -9.0498    0.0000 C    0  0  0  0  0  0  0  0  0  0  0  0
   11.3903  -10.2022    0.0000 C    0  0  0  0  0  0  0  0  0  0  0  0
   14.0466  -10.1932    0.0000 C    0  0  0  0  0  0  0  0  0  0  0  0
   12.0504  -11.3457    0.0000 C    0  0  0  0  0  0  0  0  0  0  0  0
   13.3811  -11.3450    0.0000 C    0  0  0  0  0  0  0  0  0  0  0  0
    7.9361   -9.8931    0.0000 C    0  0  0  0  0  0  0  0  0  0  0  0
    7.9354   -8.5625    0.0000 C    0  0  0  0  0  0  0  0  0  0  0  0
    9.0835  -10.5510    0.0000 C    0  0  0  0  0  0  0  0  0  0  0  0
    9.0873   -7.8975    0.0000 C    0  0  0  0  0  0  0  0  0  0  0  0
   10.2353   -9.8860    0.0000 C    0  0  0  0  0  0  0  0  0  0  0  0
   10.2393   -8.5634    0.0000 C    0  0  0  0  0  0  0  0  0  0  0  0
   12.6380   -7.4340    0.0000 Rh   0  0  0  0  0  0  0  0  0  0  0  0
   12.3971   -6.1298    0.0000 C    0  0  0  0  0  0  0  0  0  0  0  0
   12.1554   -4.8261    0.0000 N    0  0  0  0  0  0  0  0  0  0  0  0
   15.3548   -6.4492    0.0000 P    0  0  0  0  0  0  0  0  0  0  0  0
   15.8071   -7.6928    0.0000 C    0  0  0  0  0  0  0  0  0  0  0  0
   17.1200   -7.9280    0.0000 C    0  0  0  0  0  0  0  0  0  0  0  0
   14.9548   -8.7173    0.0000 C    0  0  0  0  0  0  0  0  0  0  0  0
   17.5673   -9.1639    0.0000 C    0  0  0  0  0  0  0  0  0  0  0  0
   15.4065   -9.9608    0.0000 C    0  0  0  0  0  0  0  0  0  0  0  0
   16.7153  -10.1881    0.0000 C    0  0  0  0  0  0  0  0  0  0  0  0
   14.8984   -5.1978    0.0000 C    0  0  0  0  0  0  0  0  0  0  0  0
   13.5900   -4.9702    0.0000 C    0  0  0  0  0  0  0  0  0  0  0  0
   15.7431   -4.1777    0.0000 C    0  0  0  0  0  0  0  0  0  0  0  0
   13.1260   -3.7231    0.0000 C    0  0  0  0  0  0  0  0  0  0  0  0
   15.2862   -2.9260    0.0000 C    0  0  0  0  0  0  0  0  0  0  0  0
   13.9779   -2.6988    0.0000 C    0  0  0  0  0  0  0  0  0  0  0  0
   19.0975   -5.0768    0.0000 C    0  0  0  0  0  0  0  0  0  0  0  0
   18.8703   -6.3850    0.0000 C    0  0  0  0  0  0  0  0  0  0  0  0
   18.0810   -4.2199    0.0000 C    0  0  0  0  0  0  0  0  0  0  0  0
   17.6189   -6.8414    0.0000 C    0  0  0  0  0  0  0  0  0  0  0  0
   16.8292   -4.6764    0.0000 C    0  0  0  0  0  0  0  0  0  0  0  0
   16.6022   -5.9850    0.0000 C    0  0  0  0  0  0  0  0  0  0  0  0
   13.0967   -8.6824    0.0000 C    0  0  0  0  0  0  0  0  0  0  0  0
   14.4072   -8.9094    0.0000 C    0  0  0  0  0  0  0  0  0  0  0  0
   12.2449   -9.7040    0.0000 C    0  0  0  0  0  0  0  0  0  0  0  0
   14.8659  -10.1579    0.0000 C    0  0  0  0  0  0  0  0  0  0  0  0
   12.7036  -10.9523    0.0000 C    0  0  0  0  0  0  0  0  0  0  0  0
   14.0141  -11.1793    0.0000 N    0  0  0  0  0  0  0  0  0  0  0  0
  2  3  1  0  0  0  0
  2  4  2  0  0  0  0
  3  5  2  0  0  0  0
  4  6  1  0  0  0  0
  5  7  1  0  0  0  0
  6  7  2  0  0  0  0
  1  2  1  0  0  0  0
  8  9  1  0  0  0  0
  8 10  2  0  0  0  0
  9 11  2  0  0  0  0
 10 12  1  0  0  0  0
 11 13  1  0  0  0  0
 12 13  2  0  0  0  0
  1  8  1  0  0  0  0
 14 15  1  0  0  0  0
 14 16  2  0  0  0  0
 15 17  2  0  0  0  0
 16 18  1  0  0  0  0
 17 19  1  0  0  0  0
 18 19  2  0  0  0  0
  1 19  1  0  0  0  0
 21 22  3  0  0  0  0
 20 21  1  0  0  0  0
 20 23  1  0  0  0  0
 24 25  1  0  0  0  0
 24 26  2  0  0  0  0
 25 27  2  0  0  0  0
 26 28  1  0  0  0  0
 27 29  1  0  0  0  0
 28 29  2  0  0  0  0
 23 24  1  0  0  0  0
 30 31  1  0  0  0  0
 30 32  2  0  0  0  0
 31 33  2  0  0  0  0
 32 34  1  0  0  0  0
 33 35  1  0  0  0  0
 34 35  2  0  0  0  0
 23 30  1  0  0  0  0
 36 37  1  0  0  0  0
 36 38  2  0  0  0  0
 37 39  2  0  0  0  0
 38 40  1  0  0  0  0
 39 41  1  0  0  0  0
 40 41  2  0  0  0  0
 23 41  1  0  0  0  0
  1 20  1  0  0  0  0
 42 43  1  0  0  0  0
 42 44  2  0  0  0  0
 43 45  2  0  0  0  0
 44 46  1  0  0  0  0
 45 47  1  0  0  0  0
 46 47  2  0  0  0  0
 20 42  1  0  0  0  0
M  END
> <NMREDATA_VERSION>
1.1

> <NMREDATA_LEVEL>
0

> <NMREDATA_SOLVENT>
toluene-d8

> <NMREDATA_TEMPERATURE>
247

> <NMREDATA_FORMULA>
C42H36N2P2Rh

> <NMREDATA_SMILES>
N#C[Rh](P(c1ccccc1)(c1ccccc1)c1ccccc1)(P(c1ccccc1)(c1ccccc1)c1ccccc1)c1ccncc1

> <NMREDATA_ASSIGNMENT>
Rh20, -142.00, 20

> <NMREDATA_1D_103Rh>
-142.00, L=Rh20

$$$$

  ACD/LABS03092411052D

 62 70  0  0  0  0  0  0  0  0  2 V2000
   14.0673   -0.7291    0.0000 C    0  0  0  0  0  0  0  0  0  0  0  0
   14.0673   -2.0591    0.0000 C    0  0  0  0  0  0  0  0  0  0  0  0
   12.9154   -0.0641    0.0000 C    0  0  0  0  0  0  0  0  0  0  0  0
   12.9154   -2.7241    0.0000 C    0  0  0  0  0  0  0  0  0  0  0  0
   11.7636   -0.7291    0.0000 C    0  0  0  0  0  0  0  0  0  0  0  0
   11.7636   -2.0591    0.0000 C    0  0  0  0  0  0  0  0  0  0  0  0
   10.7984   -1.0816    0.0000 C    0  0  0  0  0  0  0  0  0  0  0  0
   10.7984   -2.4116    0.0000 C    0  0  0  0  0  0  0  0  0  0  0  0
    9.6464   -0.4166    0.0000 C    0  0  0  0  0  0  0  0  0  0  0  0
    9.6464   -3.0766    0.0000 C    0  0  0  0  0  0  0  0  0  0  0  0
    8.4947   -1.0816    0.0000 C    0  0  0  0  0  0  0  0  0  0  0  0
    8.4947   -2.4116    0.0000 C    0  0  0  0  0  0  0  0  0  0  0  0
    7.7377   -2.6840    0.0000 C    0  0  0  0  0  0  0  0  0  0  0  0
    7.7377   -4.0140    0.0000 C    0  0  0  0  0  0  0  0  0  0  0  0
    6.5858   -2.0190    0.0000 C    0  0  0  0  0  0  0  0  0  0  0  0
    6.5858   -4.6790    0.0000 C    0  0  0  0  0  0  0  0  0  0  0  0
    5.4341   -2.6840    0.0000 C    0  0  0  0  0  0  0  0  0  0  0  0
    5.4341   -4.0140    0.0000 C    0  0  0  0  0  0  0  0  0  0  0  0
   11.3911   -7.8984    0.0000 P    0  0  0  0  0  0  0  0  0  0  0  0
   10.7261   -6.7466    0.0000 C    0  0  0  0  0  0  0  0  0  0  0  0
   11.3916   -5.5947    0.0000 C    0  0  0  0  0  0  0  0  0  0  0  0
    9.3955   -6.7472    0.0000 C    0  0  0  0  0  0  0  0  0  0  0  0
   10.7266   -4.4429    0.0000 C    0  0  0  0  0  0  0  0  0  0  0  0
    8.7305   -5.5954    0.0000 C    0  0  0  0  0  0  0  0  0  0  0  0
    9.3963   -4.4433    0.0000 C    0  0  0  0  0  0  0  0  0  0  0  0
   12.0559   -9.0498    0.0000 C    0  0  0  0  0  0  0  0  0  0  0  0
   13.3864   -9.0498    0.0000 C    0  0  0  0  0  0  0  0  0  0  0  0
   11.3903  -10.2022    0.0000 C    0  0  0  0  0  0  0  0  0  0  0  0
   14.0466  -10.1932    0.0000 C    0  0  0  0  0  0  0  0  0  0  0  0
   12.0504  -11.3457    0.0000 C    0  0  0  0  0  0  0  0  0  0  0  0
   13.3811  -11.3450    0.0000 C    0  0  0  0  0  0  0  0  0  0  0  0
    7.9361   -9.8931    0.0000 C    0  0  0  0  0  0  0  0  0  0  0  0
    7.9354   -8.5625    0.0000 C    0  0  0  0  0  0  0  0  0  0  0  0
    9.0835  -10.5510    0.0000 C    0  0  0  0  0  0  0  0  0  0  0  0
    9.0873   -7.8975    0.0000 C    0  0  0  0  0  0  0  0  0  0  0  0
   10.2353   -9.8860    0.0000 C    0  0  0  0  0  0  0  0  0  0  0  0
   10.2393   -8.5634    0.0000 C    0  0  0  0  0  0  0  0  0  0  0  0
   12.6380   -7.4340    0.0000 Rh   0  5  0  0  0  0  0  0  0  0  0  0
   12.3971   -6.1298    0.0000 C    0  0  0  0  0  0  0  0  0  0  0  0
   12.1554   -4.8261    0.0000 N    0  3  0  0  0  0  0  0  0  0  0  0
   15.3548   -6.4492    0.0000 P    0  0  0  0  0  0  0  0  0  0  0  0
   15.8071   -7.6928    0.0000 C    0  0  0  0  0  0  0  0  0  0  0  0
   17.1200   -7.9280    0.0000 C    0  0  0  0  0  0  0  0  0  0  0  0
   14.9548   -8.7173    0.0000 C    0  0  0  0  0  0  0  0  0  0  0  0
   17.5673   -9.1639    0.0000 C    0  0  0  0  0  0  0  0  0  0  0  0
   15.4065   -9.9608    0.0000 C    0  0  0  0  0  0  0  0  0  0  0  0
   16.7153  -10.1881    0.0000 C    0  0  0  0  0  0  0  0  0  0  0  0
   14.8984   -5.1978    0.0000 C    0  0  0  0  0  0  0  0  0  0  0  0
   13.5900   -4.9702    0.0000 C    0  0  0  0  0  0  0  0  0  0  0  0
   15.7431   -4.1777    0.0000 C    0  0  0  0  0  0  0  0  0  0  0  0
   13.1260   -3.7231    0.0000 C    0  0  0  0  0  0  0  0  0  0  0  0
   15.2862   -2.9260    0.0000 C    0  0  0  0  0  0  0  0  0  0  0  0
   13.9779   -2.6988    0.0000 C    0  0  0  0  0  0  0  0  0  0  0  0
   19.0975   -5.0768    0.0000 C    0  0  0  0  0  0  0  0  0  0  0  0
   18.8703   -6.3850    0.0000 C    0  0  0  0  0  0  0  0  0  0  0  0
   18.0810   -4.2199    0.0000 C    0  0  0  0  0  0  0  0  0  0  0  0
   17.6189   -6.8414    0.0000 C    0  0  0  0  0  0  0  0  0  0  0  0
   16.8292   -4.6764    0.0000 C    0  0  0  0  0  0  0  0  0  0  0  0
   16.6022   -5.9850    0.0000 C    0  0  0  0  0  0  0  0  0  0  0  0
   13.9730   -8.7972    0.0000 C    0  0  0  0  0  0  0  0  0  0  0  0
   14.9986  -10.3195    0.0000 O    0  0  0  0  0  0  0  0  0  0  0  0
   11.7937   -3.3651    0.0000 B    0  0  0  0  0  0  0  0  0  0  0  0
  1  2  1  0  0  0  0
  1  3  2  0  0  0  0
  2  4  2  0  0  0  0
  3  5  1  0  0  0  0
  4  6  1  0  0  0  0
  5  6  2  0  0  0  0
  7  8  1  0  0  0  0
  7  9  2  0  0  0  0
  8 10  2  0  0  0  0
  9 11  1  0  0  0  0
 10 12  1  0  0  0  0
 11 12  2  0  0  0  0
 13 14  1  0  0  0  0
 13 15  2  0  0  0  0
 14 16  2  0  0  0  0
 15 17  1  0  0  0  0
 16 18  1  0  0  0  0
 17 18  2  0  0  0  0
 20 21  1  0  0  0  0
 20 22  2  0  0  0  0
 21 23  2  0  0  0  0
 22 24  1  0  0  0  0
 23 25  1  0  0  0  0
 24 25  2  0  0  0  0
 19 20  1  0  0  0  0
 26 27  1  0  0  0  0
 26 28  2  0  0  0  0
 27 29  2  0  0  0  0
 28 30  1  0  0  0  0
 29 31  1  0  0  0  0
 30 31  2  0  0  0  0
 19 26  1  0  0  0  0
 32 33  1  0  0  0  0
 32 34  2  0  0  0  0
 33 35  2  0  0  0  0
 34 36  1  0  0  0  0
 35 37  1  0  0  0  0
 36 37  2  0  0  0  0
 19 37  1  0  0  0  0
 39 40  3  0  0  0  0
 38 39  1  0  0  0  0
 38 41  1  0  0  0  0
 42 43  1  0  0  0  0
 42 44  2  0  0  0  0
 43 45  2  0  0  0  0
 44 46  1  0  0  0  0
 45 47  1  0  0  0  0
 46 47  2  0  0  0  0
 41 42  1  0  0  0  0
 48 49  1  0  0  0  0
 48 50  2  0  0  0  0
 49 51  2  0  0  0  0
 50 52  1  0  0  0  0
 51 53  1  0  0  0  0
 52 53  2  0  0  0  0
 41 48  1  0  0  0  0
 54 55  1  0  0  0  0
 54 56  2  0  0  0  0
 55 57  2  0  0  0  0
 56 58  1  0  0  0  0
 57 59  1  0  0  0  0
 58 59  2  0  0  0  0
 41 59  1  0  0  0  0
 19 38  1  0  0  0  0
 38 60  2  0  0  0  0
 60 61  2  0  0  0  0
 40 62  1  0  0  0  0
 14 62  1  0  0  0  0
  8 62  1  0  0  0  0
  4 62  1  0  0  0  0
M  END
> <NMREDATA_VERSION>
1.1

> <NMREDATA_LEVEL>
0

> <NMREDATA_SOLVENT>
DCCl3

> <NMREDATA_TEMPERATURE>
300

> <NMREDATA_FORMULA>
C56H48BNOP2Rh

> <NMREDATA_SMILES>
O=C=[Rh](P(c1ccccc1)(c1ccccc1)c1ccccc1)(P(c1ccccc1)(c1ccccc1)c1ccccc1)C#N[B](c1ccccc1)(c1ccccc1)c1ccccc1

> <NMREDATA_ASSIGNMENT>
Rh38, -790.00, 38

> <NMREDATA_1D_103Rh>
-790.00, L=Rh38

$$$$

  ACD/LABS03092411052D

 62 70  0  0  0  0  0  0  0  0  2 V2000
   14.0673   -0.7291    0.0000 C    0  0  0  0  0  0  0  0  0  0  0  0
   14.0673   -2.0591    0.0000 C    0  0  0  0  0  0  0  0  0  0  0  0
   12.9154   -0.0641    0.0000 C    0  0  0  0  0  0  0  0  0  0  0  0
   12.9154   -2.7241    0.0000 C    0  0  0  0  0  0  0  0  0  0  0  0
   11.7636   -0.7291    0.0000 C    0  0  0  0  0  0  0  0  0  0  0  0
   11.7636   -2.0591    0.0000 C    0  0  0  0  0  0  0  0  0  0  0  0
   10.7984   -1.0816    0.0000 C    0  0  0  0  0  0  0  0  0  0  0  0
   10.7984   -2.4116    0.0000 C    0  0  0  0  0  0  0  0  0  0  0  0
    9.6464   -0.4166    0.0000 C    0  0  0  0  0  0  0  0  0  0  0  0
    9.6464   -3.0766    0.0000 C    0  0  0  0  0  0  0  0  0  0  0  0
    8.4947   -1.0816    0.0000 C    0  0  0  0  0  0  0  0  0  0  0  0
    8.4947   -2.4116    0.0000 C    0  0  0  0  0  0  0  0  0  0  0  0
    7.7377   -2.6840    0.0000 C    0  0  0  0  0  0  0  0  0  0  0  0
    7.7377   -4.0140    0.0000 C    0  0  0  0  0  0  0  0  0  0  0  0
    6.5858   -2.0190    0.0000 C    0  0  0  0  0  0  0  0  0  0  0  0
    6.5858   -4.6790    0.0000 C    0  0  0  0  0  0  0  0  0  0  0  0
    5.4341   -2.6840    0.0000 C    0  0  0  0  0  0  0  0  0  0  0  0
    5.4341   -4.0140    0.0000 C    0  0  0  0  0  0  0  0  0  0  0  0
   11.3911   -7.8984    0.0000 P    0  0  0  0  0  0  0  0  0  0  0  0
   10.7261   -6.7466    0.0000 C    0  0  0  0  0  0  0  0  0  0  0  0
   11.3916   -5.5947    0.0000 C    0  0  0  0  0  0  0  0  0  0  0  0
    9.3955   -6.7472    0.0000 C    0  0  0  0  0  0  0  0  0  0  0  0
   10.7266   -4.4429    0.0000 C    0  0  0  0  0  0  0  0  0  0  0  0
    8.7305   -5.5954    0.0000 C    0  0  0  0  0  0  0  0  0  0  0  0
    9.3963   -4.4433    0.0000 C    0  0  0  0  0  0  0  0  0  0  0  0
   12.0559   -9.0498    0.0000 C    0  0  0  0  0  0  0  0  0  0  0  0
   13.3864   -9.0498    0.0000 C    0  0  0  0  0  0  0  0  0  0  0  0
   11.3903  -10.2022    0.0000 C    0  0  0  0  0  0  0  0  0  0  0  0
   14.0466  -10.1932    0.0000 C    0  0  0  0  0  0  0  0  0  0  0  0
   12.0504  -11.3457    0.0000 C    0  0  0  0  0  0  0  0  0  0  0  0
   13.3811  -11.3450    0.0000 C    0  0  0  0  0  0  0  0  0  0  0  0
    7.9361   -9.8931    0.0000 C    0  0  0  0  0  0  0  0  0  0  0  0
    7.9354   -8.5625    0.0000 C    0  0  0  0  0  0  0  0  0  0  0  0
    9.0835  -10.5510    0.0000 C    0  0  0  0  0  0  0  0  0  0  0  0
    9.0873   -7.8975    0.0000 C    0  0  0  0  0  0  0  0  0  0  0  0
   10.2353   -9.8860    0.0000 C    0  0  0  0  0  0  0  0  0  0  0  0
   10.2393   -8.5634    0.0000 C    0  0  0  0  0  0  0  0  0  0  0  0
   12.6380   -7.4340    0.0000 Rh   0  5  0  0  0  0  0  0  0  0  0  0
   12.3971   -6.1298    0.0000 C    0  0  0  0  0  0  0  0  0  0  0  0
   12.1554   -4.8261    0.0000 N    0  3  0  0  0  0  0  0  0  0  0  0
   15.3548   -6.4492    0.0000 P    0  0  0  0  0  0  0  0  0  0  0  0
   15.8071   -7.6928    0.0000 C    0  0  0  0  0  0  0  0  0  0  0  0
   17.1200   -7.9280    0.0000 C    0  0  0  0  0  0  0  0  0  0  0  0
   14.9548   -8.7173    0.0000 C    0  0  0  0  0  0  0  0  0  0  0  0
   17.5673   -9.1639    0.0000 C    0  0  0  0  0  0  0  0  0  0  0  0
   15.4065   -9.9608    0.0000 C    0  0  0  0  0  0  0  0  0  0  0  0
   16.7153  -10.1881    0.0000 C    0  0  0  0  0  0  0  0  0  0  0  0
   14.8984   -5.1978    0.0000 C    0  0  0  0  0  0  0  0  0  0  0  0
   13.5900   -4.9702    0.0000 C    0  0  0  0  0  0  0  0  0  0  0  0
   15.7431   -4.1777    0.0000 C    0  0  0  0  0  0  0  0  0  0  0  0
   13.1260   -3.7231    0.0000 C    0  0  0  0  0  0  0  0  0  0  0  0
   15.2862   -2.9260    0.0000 C    0  0  0  0  0  0  0  0  0  0  0  0
   13.9779   -2.6988    0.0000 C    0  0  0  0  0  0  0  0  0  0  0  0
   19.0975   -5.0768    0.0000 C    0  0  0  0  0  0  0  0  0  0  0  0
   18.8703   -6.3850    0.0000 C    0  0  0  0  0  0  0  0  0  0  0  0
   18.0810   -4.2199    0.0000 C    0  0  0  0  0  0  0  0  0  0  0  0
   17.6189   -6.8414    0.0000 C    0  0  0  0  0  0  0  0  0  0  0  0
   16.8292   -4.6764    0.0000 C    0  0  0  0  0  0  0  0  0  0  0  0
   16.6022   -5.9850    0.0000 C    0  0  0  0  0  0  0  0  0  0  0  0
   13.9730   -8.7972    0.0000 C    0  0  0  0  0  0  0  0  0  0  0  0
   14.9986  -10.3195    0.0000 O    0  0  0  0  0  0  0  0  0  0  0  0
   11.7937   -3.3651    0.0000 B    0  0  0  0  0  0  0  0  0  0  0  0
  1  2  1  0  0  0  0
  1  3  2  0  0  0  0
  2  4  2  0  0  0  0
  3  5  1  0  0  0  0
  4  6  1  0  0  0  0
  5  6  2  0  0  0  0
  7  8  1  0  0  0  0
  7  9  2  0  0  0  0
  8 10  2  0  0  0  0
  9 11  1  0  0  0  0
 10 12  1  0  0  0  0
 11 12  2  0  0  0  0
 13 14  1  0  0  0  0
 13 15  2  0  0  0  0
 14 16  2  0  0  0  0
 15 17  1  0  0  0  0
 16 18  1  0  0  0  0
 17 18  2  0  0  0  0
 20 21  1  0  0  0  0
 20 22  2  0  0  0  0
 21 23  2  0  0  0  0
 22 24  1  0  0  0  0
 23 25  1  0  0  0  0
 24 25  2  0  0  0  0
 19 20  1  0  0  0  0
 26 27  1  0  0  0  0
 26 28  2  0  0  0  0
 27 29  2  0  0  0  0
 28 30  1  0  0  0  0
 29 31  1  0  0  0  0
 30 31  2  0  0  0  0
 19 26  1  0  0  0  0
 32 33  1  0  0  0  0
 32 34  2  0  0  0  0
 33 35  2  0  0  0  0
 34 36  1  0  0  0  0
 35 37  1  0  0  0  0
 36 37  2  0  0  0  0
 19 37  1  0  0  0  0
 39 40  3  0  0  0  0
 38 39  1  0  0  0  0
 38 41  1  0  0  0  0
 42 43  1  0  0  0  0
 42 44  2  0  0  0  0
 43 45  2  0  0  0  0
 44 46  1  0  0  0  0
 45 47  1  0  0  0  0
 46 47  2  0  0  0  0
 41 42  1  0  0  0  0
 48 49  1  0  0  0  0
 48 50  2  0  0  0  0
 49 51  2  0  0  0  0
 50 52  1  0  0  0  0
 51 53  1  0  0  0  0
 52 53  2  0  0  0  0
 41 48  1  0  0  0  0
 54 55  1  0  0  0  0
 54 56  2  0  0  0  0
 55 57  2  0  0  0  0
 56 58  1  0  0  0  0
 57 59  1  0  0  0  0
 58 59  2  0  0  0  0
 41 59  1  0  0  0  0
 19 38  1  0  0  0  0
 38 60  2  0  0  0  0
 60 61  2  0  0  0  0
 40 62  1  0  0  0  0
 14 62  1  0  0  0  0
  8 62  1  0  0  0  0
  4 62  1  0  0  0  0
M  END
> <NMREDATA_VERSION>
1.1

> <NMREDATA_LEVEL>
0

> <NMREDATA_SOLVENT>
DCCl3

> <NMREDATA_TEMPERATURE>
247

> <NMREDATA_FORMULA>
C56H48BNOP2Rh

> <NMREDATA_SMILES>
O=C=[Rh](P(c1ccccc1)(c1ccccc1)c1ccccc1)(P(c1ccccc1)(c1ccccc1)c1ccccc1)C#N[B](c1ccccc1)(c1ccccc1)c1ccccc1

> <NMREDATA_ASSIGNMENT>
Rh38, -816.00, 38

> <NMREDATA_1D_103Rh>
-816.00, L=Rh38

$$$$

  ACD/LABS03092411062D

 79 90  0  0  0  0  0  0  0  0  2 V2000
   10.9372  -15.4793    0.0000 C    0  0  0  0  0  0  0  0  0  0  0  0
    9.7854  -14.8143    0.0000 C    0  0  0  0  0  0  0  0  0  0  0  0
   12.0891  -14.8143    0.0000 C    0  0  0  0  0  0  0  0  0  0  0  0
    9.7854  -13.4843    0.0000 C    0  0  0  0  0  0  0  0  0  0  0  0
   12.0891  -13.4843    0.0000 C    0  0  0  0  0  0  0  0  0  0  0  0
   10.9372  -12.8193    0.0000 C    0  0  0  0  0  0  0  0  0  0  0  0
   12.9322  -10.3375    0.0000 C    0  0  0  0  0  0  0  0  0  0  0  0
   14.2622  -10.3375    0.0000 C    0  0  0  0  0  0  0  0  0  0  0  0
   12.2672  -11.4893    0.0000 C    0  0  0  0  0  0  0  0  0  0  0  0
   14.9272  -11.4893    0.0000 C    0  0  0  0  0  0  0  0  0  0  0  0
   12.9322  -12.6411    0.0000 C    0  0  0  0  0  0  0  0  0  0  0  0
   14.2622  -12.6411    0.0000 C    0  0  0  0  0  0  0  0  0  0  0  0
    9.6072  -11.4893    0.0000 C    0  0  0  0  0  0  0  0  0  0  0  0
    8.9422  -12.6411    0.0000 C    0  0  0  0  0  0  0  0  0  0  0  0
    8.9422  -10.3375    0.0000 C    0  0  0  0  0  0  0  0  0  0  0  0
    7.6122  -12.6411    0.0000 C    0  0  0  0  0  0  0  0  0  0  0  0
    7.6122  -10.3375    0.0000 C    0  0  0  0  0  0  0  0  0  0  0  0
    6.9472  -11.4893    0.0000 C    0  0  0  0  0  0  0  0  0  0  0  0
   12.0891   -2.8443    0.0000 C    0  0  0  0  0  0  0  0  0  0  0  0
   12.0891   -4.1743    0.0000 C    0  0  0  0  0  0  0  0  0  0  0  0
   10.9372   -2.1793    0.0000 C    0  0  0  0  0  0  0  0  0  0  0  0
   10.9372   -4.8393    0.0000 C    0  0  0  0  0  0  0  0  0  0  0  0
    9.7854   -2.8443    0.0000 C    0  0  0  0  0  0  0  0  0  0  0  0
    9.7854   -4.1743    0.0000 C    0  0  0  0  0  0  0  0  0  0  0  0
    7.6122   -5.0175    0.0000 C    0  0  0  0  0  0  0  0  0  0  0  0
    8.2772   -6.1693    0.0000 C    0  0  0  0  0  0  0  0  0  0  0  0
    6.2822   -5.0175    0.0000 C    0  0  0  0  0  0  0  0  0  0  0  0
    7.6122   -7.3211    0.0000 C    0  0  0  0  0  0  0  0  0  0  0  0
    5.6172   -6.1693    0.0000 C    0  0  0  0  0  0  0  0  0  0  0  0
    6.2822   -7.3211    0.0000 C    0  0  0  0  0  0  0  0  0  0  0  0
   14.2622   -7.3211    0.0000 C    0  0  0  0  0  0  0  0  0  0  0  0
   13.5972   -6.1693    0.0000 C    0  0  0  0  0  0  0  0  0  0  0  0
   15.5922   -7.3211    0.0000 C    0  0  0  0  0  0  0  0  0  0  0  0
   14.2622   -5.0175    0.0000 C    0  0  0  0  0  0  0  0  0  0  0  0
   16.2572   -6.1693    0.0000 C    0  0  0  0  0  0  0  0  0  0  0  0
   15.5922   -5.0175    0.0000 C    0  0  0  0  0  0  0  0  0  0  0  0
   12.2672  -10.1593    0.0000 P    0  0  0  0  0  0  0  0  0  0  0  0
   12.2672   -8.8293    0.0000 C    0  0  0  0  0  0  0  0  0  0  0  0
   11.1154   -8.1643    0.0000 C    0  0  0  0  0  0  0  0  0  0  0  0
   13.4191   -8.1643    0.0000 C    0  0  0  0  0  0  0  0  0  0  0  0
   11.1154   -6.8343    0.0000 C    0  0  0  0  0  0  0  0  0  0  0  0
   13.4191   -6.8343    0.0000 C    0  0  0  0  0  0  0  0  0  0  0  0
   12.2672   -6.1693    0.0000 C    0  0  0  0  0  0  0  0  0  0  0  0
   12.2672  -12.8193    0.0000 C    0  0  0  0  0  0  0  0  0  0  0  0
   13.4191  -13.4843    0.0000 C    0  0  0  0  0  0  0  0  0  0  0  0
   11.1154  -13.4843    0.0000 C    0  0  0  0  0  0  0  0  0  0  0  0
   13.4191  -14.8143    0.0000 C    0  0  0  0  0  0  0  0  0  0  0  0
   11.1154  -14.8143    0.0000 C    0  0  0  0  0  0  0  0  0  0  0  0
   12.2672  -15.4793    0.0000 C    0  0  0  0  0  0  0  0  0  0  0  0
   16.2572  -10.1593    0.0000 C    0  0  0  0  0  0  0  0  0  0  0  0
   15.5922  -11.3111    0.0000 C    0  0  0  0  0  0  0  0  0  0  0  0
   15.5922   -9.0075    0.0000 C    0  0  0  0  0  0  0  0  0  0  0  0
   14.2622  -11.3111    0.0000 C    0  0  0  0  0  0  0  0  0  0  0  0
   14.2622   -9.0075    0.0000 C    0  0  0  0  0  0  0  0  0  0  0  0
   13.5972  -10.1593    0.0000 C    0  0  0  0  0  0  0  0  0  0  0  0
   10.9372  -10.1593    0.0000 Rh   0  0  0  0  0  0  0  0  0  0  0  0
   10.9372   -8.8293    0.0000 C    0  0  0  0  0  0  0  0  0  0  0  0
   10.9372   -7.4993    0.0000 N    0  3  0  0  0  0  0  0  0  0  0  0
    9.6072  -10.1593    0.0000 P    0  0  0  0  0  0  0  0  0  0  0  0
    9.6072  -12.8193    0.0000 C    0  0  0  0  0  0  0  0  0  0  0  0
   10.7591  -13.4843    0.0000 C    0  0  0  0  0  0  0  0  0  0  0  0
    8.4554  -13.4843    0.0000 C    0  0  0  0  0  0  0  0  0  0  0  0
   10.7591  -14.8143    0.0000 C    0  0  0  0  0  0  0  0  0  0  0  0
    8.4554  -14.8143    0.0000 C    0  0  0  0  0  0  0  0  0  0  0  0
    9.6072  -15.4793    0.0000 C    0  0  0  0  0  0  0  0  0  0  0  0
    9.6072   -8.8293    0.0000 C    0  0  0  0  0  0  0  0  0  0  0  0
    8.4554   -8.1643    0.0000 C    0  0  0  0  0  0  0  0  0  0  0  0
   10.7591   -8.1643    0.0000 C    0  0  0  0  0  0  0  0  0  0  0  0
    8.4554   -6.8343    0.0000 C    0  0  0  0  0  0  0  0  0  0  0  0
   10.7591   -6.8343    0.0000 C    0  0  0  0  0  0  0  0  0  0  0  0
    9.6072   -6.1693    0.0000 C    0  0  0  0  0  0  0  0  0  0  0  0
    5.6172  -10.1593    0.0000 C    0  0  0  0  0  0  0  0  0  0  0  0
    6.2822   -9.0075    0.0000 C    0  0  0  0  0  0  0  0  0  0  0  0
    6.2822  -11.3111    0.0000 C    0  0  0  0  0  0  0  0  0  0  0  0
    7.6122   -9.0075    0.0000 C    0  0  0  0  0  0  0  0  0  0  0  0
    7.6122  -11.3111    0.0000 C    0  0  0  0  0  0  0  0  0  0  0  0
    8.2772  -10.1593    0.0000 C    0  0  0  0  0  0  0  0  0  0  0  0
   10.9372   -6.1693    0.0000 B    0  0  0  0  0  0  0  0  0  0  0  0
   10.9372  -11.4893    0.0000 P    0  0  0  0  0  0  0  0  0  0  0  0
  1  2  1  0  0  0  0
  1  3  2  0  0  0  0
  2  4  2  0  0  0  0
  3  5  1  0  0  0  0
  4  6  1  0  0  0  0
  5  6  2  0  0  0  0
  7  8  1  0  0  0  0
  7  9  2  0  0  0  0
  8 10  2  0  0  0  0
  9 11  1  0  0  0  0
 10 12  1  0  0  0  0
 11 12  2  0  0  0  0
 13 14  1  0  0  0  0
 13 15  2  0  0  0  0
 14 16  2  0  0  0  0
 15 17  1  0  0  0  0
 16 18  1  0  0  0  0
 17 18  2  0  0  0  0
 19 20  1  0  0  0  0
 19 21  2  0  0  0  0
 20 22  2  0  0  0  0
 21 23  1  0  0  0  0
 22 24  1  0  0  0  0
 23 24  2  0  0  0  0
 25 26  1  0  0  0  0
 25 27  2  0  0  0  0
 26 28  2  0  0  0  0
 27 29  1  0  0  0  0
 28 30  1  0  0  0  0
 29 30  2  0  0  0  0
 31 32  1  0  0  0  0
 31 33  2  0  0  0  0
 32 34  2  0  0  0  0
 33 35  1  0  0  0  0
 34 36  1  0  0  0  0
 35 36  2  0  0  0  0
 38 39  1  0  0  0  0
 38 40  2  0  0  0  0
 39 41  2  0  0  0  0
 40 42  1  0  0  0  0
 41 43  1  0  0  0  0
 42 43  2  0  0  0  0
 37 38  1  0  0  0  0
 44 45  1  0  0  0  0
 44 46  2  0  0  0  0
 45 47  2  0  0  0  0
 46 48  1  0  0  0  0
 47 49  1  0  0  0  0
 48 49  2  0  0  0  0
 37 44  1  0  0  0  0
 50 51  1  0  0  0  0
 50 52  2  0  0  0  0
 51 53  2  0  0  0  0
 52 54  1  0  0  0  0
 53 55  1  0  0  0  0
 54 55  2  0  0  0  0
 37 55  1  0  0  0  0
 57 58  3  0  0  0  0
 56 57  1  0  0  0  0
 56 59  1  0  0  0  0
 60 61  1  0  0  0  0
 60 62  2  0  0  0  0
 61 63  2  0  0  0  0
 62 64  1  0  0  0  0
 63 65  1  0  0  0  0
 64 65  2  0  0  0  0
 59 60  1  0  0  0  0
 66 67  1  0  0  0  0
 66 68  2  0  0  0  0
 67 69  2  0  0  0  0
 68 70  1  0  0  0  0
 69 71  1  0  0  0  0
 70 71  2  0  0  0  0
 59 66  1  0  0  0  0
 72 73  1  0  0  0  0
 72 74  2  0  0  0  0
 73 75  2  0  0  0  0
 74 76  1  0  0  0  0
 75 77  1  0  0  0  0
 76 77  2  0  0  0  0
 59 77  1  0  0  0  0
 37 56  1  0  0  0  0
 58 78  1  0  0  0  0
 32 78  1  0  0  0  0
 26 78  1  0  0  0  0
 22 78  1  0  0  0  0
 56 79  1  0  0  0  0
 13 79  1  0  0  0  0
  9 79  1  0  0  0  0
  6 79  1  0  0  0  0
M  END
> <NMREDATA_VERSION>
1.1

> <NMREDATA_LEVEL>
0

> <NMREDATA_SOLVENT>
DCCl3

> <NMREDATA_TEMPERATURE>
300

> <NMREDATA_FORMULA>
C73H64BNP3Rh

> <NMREDATA_SMILES>
c1ccc(cc1)[B](c1ccccc1)(c1ccccc1)N#C[Rh](P(c1ccccc1)(c1ccccc1)c1ccccc1)(P(c1ccccc1)(c1ccccc1)c1ccccc1)P(c1ccccc1)(c1ccccc1)c1ccccc1

> <NMREDATA_ASSIGNMENT>
Rh56, -405.00, 56

> <NMREDATA_1D_103Rh>
-405.00, L=Rh56

$$$$

  ACD/LABS03092411072D

 79 90  0  0  0  0  0  0  0  0  2 V2000
   10.9372  -15.4793    0.0000 C    0  0  0  0  0  0  0  0  0  0  0  0
    9.7854  -14.8143    0.0000 C    0  0  0  0  0  0  0  0  0  0  0  0
   12.0891  -14.8143    0.0000 C    0  0  0  0  0  0  0  0  0  0  0  0
    9.7854  -13.4843    0.0000 C    0  0  0  0  0  0  0  0  0  0  0  0
   12.0891  -13.4843    0.0000 C    0  0  0  0  0  0  0  0  0  0  0  0
   10.9372  -12.8193    0.0000 C    0  0  0  0  0  0  0  0  0  0  0  0
   12.9322  -10.3375    0.0000 C    0  0  0  0  0  0  0  0  0  0  0  0
   14.2622  -10.3375    0.0000 C    0  0  0  0  0  0  0  0  0  0  0  0
   12.2672  -11.4893    0.0000 C    0  0  0  0  0  0  0  0  0  0  0  0
   14.9272  -11.4893    0.0000 C    0  0  0  0  0  0  0  0  0  0  0  0
   12.9322  -12.6411    0.0000 C    0  0  0  0  0  0  0  0  0  0  0  0
   14.2622  -12.6411    0.0000 C    0  0  0  0  0  0  0  0  0  0  0  0
    9.6072  -11.4893    0.0000 C    0  0  0  0  0  0  0  0  0  0  0  0
    8.9422  -12.6411    0.0000 C    0  0  0  0  0  0  0  0  0  0  0  0
    8.9422  -10.3375    0.0000 C    0  0  0  0  0  0  0  0  0  0  0  0
    7.6122  -12.6411    0.0000 C    0  0  0  0  0  0  0  0  0  0  0  0
    7.6122  -10.3375    0.0000 C    0  0  0  0  0  0  0  0  0  0  0  0
    6.9472  -11.4893    0.0000 C    0  0  0  0  0  0  0  0  0  0  0  0
   12.0891   -2.8443    0.0000 C    0  0  0  0  0  0  0  0  0  0  0  0
   12.0891   -4.1743    0.0000 C    0  0  0  0  0  0  0  0  0  0  0  0
   10.9372   -2.1793    0.0000 C    0  0  0  0  0  0  0  0  0  0  0  0
   10.9372   -4.8393    0.0000 C    0  0  0  0  0  0  0  0  0  0  0  0
    9.7854   -2.8443    0.0000 C    0  0  0  0  0  0  0  0  0  0  0  0
    9.7854   -4.1743    0.0000 C    0  0  0  0  0  0  0  0  0  0  0  0
    7.6122   -5.0175    0.0000 C    0  0  0  0  0  0  0  0  0  0  0  0
    8.2772   -6.1693    0.0000 C    0  0  0  0  0  0  0  0  0  0  0  0
    6.2822   -5.0175    0.0000 C    0  0  0  0  0  0  0  0  0  0  0  0
    7.6122   -7.3211    0.0000 C    0  0  0  0  0  0  0  0  0  0  0  0
    5.6172   -6.1693    0.0000 C    0  0  0  0  0  0  0  0  0  0  0  0
    6.2822   -7.3211    0.0000 C    0  0  0  0  0  0  0  0  0  0  0  0
   14.2622   -7.3211    0.0000 C    0  0  0  0  0  0  0  0  0  0  0  0
   13.5972   -6.1693    0.0000 C    0  0  0  0  0  0  0  0  0  0  0  0
   15.5922   -7.3211    0.0000 C    0  0  0  0  0  0  0  0  0  0  0  0
   14.2622   -5.0175    0.0000 C    0  0  0  0  0  0  0  0  0  0  0  0
   16.2572   -6.1693    0.0000 C    0  0  0  0  0  0  0  0  0  0  0  0
   15.5922   -5.0175    0.0000 C    0  0  0  0  0  0  0  0  0  0  0  0
   12.2672  -10.1593    0.0000 P    0  0  0  0  0  0  0  0  0  0  0  0
   12.2672   -8.8293    0.0000 C    0  0  0  0  0  0  0  0  0  0  0  0
   11.1154   -8.1643    0.0000 C    0  0  0  0  0  0  0  0  0  0  0  0
   13.4191   -8.1643    0.0000 C    0  0  0  0  0  0  0  0  0  0  0  0
   11.1154   -6.8343    0.0000 C    0  0  0  0  0  0  0  0  0  0  0  0
   13.4191   -6.8343    0.0000 C    0  0  0  0  0  0  0  0  0  0  0  0
   12.2672   -6.1693    0.0000 C    0  0  0  0  0  0  0  0  0  0  0  0
   12.2672  -12.8193    0.0000 C    0  0  0  0  0  0  0  0  0  0  0  0
   13.4191  -13.4843    0.0000 C    0  0  0  0  0  0  0  0  0  0  0  0
   11.1154  -13.4843    0.0000 C    0  0  0  0  0  0  0  0  0  0  0  0
   13.4191  -14.8143    0.0000 C    0  0  0  0  0  0  0  0  0  0  0  0
   11.1154  -14.8143    0.0000 C    0  0  0  0  0  0  0  0  0  0  0  0
   12.2672  -15.4793    0.0000 C    0  0  0  0  0  0  0  0  0  0  0  0
   16.2572  -10.1593    0.0000 C    0  0  0  0  0  0  0  0  0  0  0  0
   15.5922  -11.3111    0.0000 C    0  0  0  0  0  0  0  0  0  0  0  0
   15.5922   -9.0075    0.0000 C    0  0  0  0  0  0  0  0  0  0  0  0
   14.2622  -11.3111    0.0000 C    0  0  0  0  0  0  0  0  0  0  0  0
   14.2622   -9.0075    0.0000 C    0  0  0  0  0  0  0  0  0  0  0  0
   13.5972  -10.1593    0.0000 C    0  0  0  0  0  0  0  0  0  0  0  0
   10.9372  -10.1593    0.0000 Rh   0  0  0  0  0  0  0  0  0  0  0  0
   10.9372   -8.8293    0.0000 C    0  0  0  0  0  0  0  0  0  0  0  0
   10.9372   -7.4993    0.0000 N    0  3  0  0  0  0  0  0  0  0  0  0
    9.6072  -10.1593    0.0000 P    0  0  0  0  0  0  0  0  0  0  0  0
    9.6072  -12.8193    0.0000 C    0  0  0  0  0  0  0  0  0  0  0  0
   10.7591  -13.4843    0.0000 C    0  0  0  0  0  0  0  0  0  0  0  0
    8.4554  -13.4843    0.0000 C    0  0  0  0  0  0  0  0  0  0  0  0
   10.7591  -14.8143    0.0000 C    0  0  0  0  0  0  0  0  0  0  0  0
    8.4554  -14.8143    0.0000 C    0  0  0  0  0  0  0  0  0  0  0  0
    9.6072  -15.4793    0.0000 C    0  0  0  0  0  0  0  0  0  0  0  0
    9.6072   -8.8293    0.0000 C    0  0  0  0  0  0  0  0  0  0  0  0
    8.4554   -8.1643    0.0000 C    0  0  0  0  0  0  0  0  0  0  0  0
   10.7591   -8.1643    0.0000 C    0  0  0  0  0  0  0  0  0  0  0  0
    8.4554   -6.8343    0.0000 C    0  0  0  0  0  0  0  0  0  0  0  0
   10.7591   -6.8343    0.0000 C    0  0  0  0  0  0  0  0  0  0  0  0
    9.6072   -6.1693    0.0000 C    0  0  0  0  0  0  0  0  0  0  0  0
    5.6172  -10.1593    0.0000 C    0  0  0  0  0  0  0  0  0  0  0  0
    6.2822   -9.0075    0.0000 C    0  0  0  0  0  0  0  0  0  0  0  0
    6.2822  -11.3111    0.0000 C    0  0  0  0  0  0  0  0  0  0  0  0
    7.6122   -9.0075    0.0000 C    0  0  0  0  0  0  0  0  0  0  0  0
    7.6122  -11.3111    0.0000 C    0  0  0  0  0  0  0  0  0  0  0  0
    8.2772  -10.1593    0.0000 C    0  0  0  0  0  0  0  0  0  0  0  0
   10.9372   -6.1693    0.0000 B    0  0  0  0  0  0  0  0  0  0  0  0
   10.9372  -11.4893    0.0000 P    0  0  0  0  0  0  0  0  0  0  0  0
  1  2  1  0  0  0  0
  1  3  2  0  0  0  0
  2  4  2  0  0  0  0
  3  5  1  0  0  0  0
  4  6  1  0  0  0  0
  5  6  2  0  0  0  0
  7  8  1  0  0  0  0
  7  9  2  0  0  0  0
  8 10  2  0  0  0  0
  9 11  1  0  0  0  0
 10 12  1  0  0  0  0
 11 12  2  0  0  0  0
 13 14  1  0  0  0  0
 13 15  2  0  0  0  0
 14 16  2  0  0  0  0
 15 17  1  0  0  0  0
 16 18  1  0  0  0  0
 17 18  2  0  0  0  0
 19 20  1  0  0  0  0
 19 21  2  0  0  0  0
 20 22  2  0  0  0  0
 21 23  1  0  0  0  0
 22 24  1  0  0  0  0
 23 24  2  0  0  0  0
 25 26  1  0  0  0  0
 25 27  2  0  0  0  0
 26 28  2  0  0  0  0
 27 29  1  0  0  0  0
 28 30  1  0  0  0  0
 29 30  2  0  0  0  0
 31 32  1  0  0  0  0
 31 33  2  0  0  0  0
 32 34  2  0  0  0  0
 33 35  1  0  0  0  0
 34 36  1  0  0  0  0
 35 36  2  0  0  0  0
 38 39  1  0  0  0  0
 38 40  2  0  0  0  0
 39 41  2  0  0  0  0
 40 42  1  0  0  0  0
 41 43  1  0  0  0  0
 42 43  2  0  0  0  0
 37 38  1  0  0  0  0
 44 45  1  0  0  0  0
 44 46  2  0  0  0  0
 45 47  2  0  0  0  0
 46 48  1  0  0  0  0
 47 49  1  0  0  0  0
 48 49  2  0  0  0  0
 37 44  1  0  0  0  0
 50 51  1  0  0  0  0
 50 52  2  0  0  0  0
 51 53  2  0  0  0  0
 52 54  1  0  0  0  0
 53 55  1  0  0  0  0
 54 55  2  0  0  0  0
 37 55  1  0  0  0  0
 57 58  3  0  0  0  0
 56 57  1  0  0  0  0
 56 59  1  0  0  0  0
 60 61  1  0  0  0  0
 60 62  2  0  0  0  0
 61 63  2  0  0  0  0
 62 64  1  0  0  0  0
 63 65  1  0  0  0  0
 64 65  2  0  0  0  0
 59 60  1  0  0  0  0
 66 67  1  0  0  0  0
 66 68  2  0  0  0  0
 67 69  2  0  0  0  0
 68 70  1  0  0  0  0
 69 71  1  0  0  0  0
 70 71  2  0  0  0  0
 59 66  1  0  0  0  0
 72 73  1  0  0  0  0
 72 74  2  0  0  0  0
 73 75  2  0  0  0  0
 74 76  1  0  0  0  0
 75 77  1  0  0  0  0
 76 77  2  0  0  0  0
 59 77  1  0  0  0  0
 37 56  1  0  0  0  0
 58 78  1  0  0  0  0
 32 78  1  0  0  0  0
 26 78  1  0  0  0  0
 22 78  1  0  0  0  0
 56 79  1  0  0  0  0
 13 79  1  0  0  0  0
  9 79  1  0  0  0  0
  6 79  1  0  0  0  0
M  END
> <NMREDATA_VERSION>
1.1

> <NMREDATA_LEVEL>
0

> <NMREDATA_SOLVENT>
DCCl3

> <NMREDATA_TEMPERATURE>
247

> <NMREDATA_FORMULA>
C73H64BNP3Rh

> <NMREDATA_SMILES>
c1ccc(cc1)[B](c1ccccc1)(c1ccccc1)N#C[Rh](P(c1ccccc1)(c1ccccc1)c1ccccc1)(P(c1ccccc1)(c1ccccc1)c1ccccc1)P(c1ccccc1)(c1ccccc1)c1ccccc1

> <NMREDATA_ASSIGNMENT>
Rh56, -435.00, 56

> <NMREDATA_1D_103Rh>
-435.00, L=Rh56

$$$$

  ACD/LABS03092411092D

 66 75  0  0  0  0  0  0  0  0  2 V2000
   16.3728  -11.4733    0.0000 C    0  0  0  0  0  0  0  0  0  0  0  0
   16.3728  -12.8033    0.0000 C    0  0  0  0  0  0  0  0  0  0  0  0
   15.2209  -10.8083    0.0000 C    0  0  0  0  0  0  0  0  0  0  0  0
   15.2209  -13.4683    0.0000 N    0  0  0  0  0  0  0  0  0  0  0  0
   14.0692  -11.4733    0.0000 C    0  0  0  0  0  0  0  0  0  0  0  0
   14.0692  -12.8033    0.0000 C    0  0  0  0  0  0  0  0  0  0  0  0
   14.0673   -0.7291    0.0000 C    0  0  0  0  0  0  0  0  0  0  0  0
   14.0673   -2.0591    0.0000 C    0  0  0  0  0  0  0  0  0  0  0  0
   12.9154   -0.0641    0.0000 C    0  0  0  0  0  0  0  0  0  0  0  0
   12.9154   -2.7241    0.0000 C    0  0  0  0  0  0  0  0  0  0  0  0
   11.7636   -0.7291    0.0000 C    0  0  0  0  0  0  0  0  0  0  0  0
   11.7636   -2.0591    0.0000 C    0  0  0  0  0  0  0  0  0  0  0  0
   10.7984   -1.0816    0.0000 C    0  0  0  0  0  0  0  0  0  0  0  0
   10.7984   -2.4116    0.0000 C    0  0  0  0  0  0  0  0  0  0  0  0
    9.6464   -0.4166    0.0000 C    0  0  0  0  0  0  0  0  0  0  0  0
    9.6464   -3.0766    0.0000 C    0  0  0  0  0  0  0  0  0  0  0  0
    8.4947   -1.0816    0.0000 C    0  0  0  0  0  0  0  0  0  0  0  0
    8.4947   -2.4116    0.0000 C    0  0  0  0  0  0  0  0  0  0  0  0
    7.7377   -2.6840    0.0000 C    0  0  0  0  0  0  0  0  0  0  0  0
    7.7377   -4.0140    0.0000 C    0  0  0  0  0  0  0  0  0  0  0  0
    6.5858   -2.0190    0.0000 C    0  0  0  0  0  0  0  0  0  0  0  0
    6.5858   -4.6790    0.0000 C    0  0  0  0  0  0  0  0  0  0  0  0
    5.4341   -2.6840    0.0000 C    0  0  0  0  0  0  0  0  0  0  0  0
    5.4341   -4.0140    0.0000 C    0  0  0  0  0  0  0  0  0  0  0  0
   11.3911   -7.8984    0.0000 P    0  0  0  0  0  0  0  0  0  0  0  0
   10.7261   -6.7466    0.0000 C    0  0  0  0  0  0  0  0  0  0  0  0
   11.3916   -5.5947    0.0000 C    0  0  0  0  0  0  0  0  0  0  0  0
    9.3955   -6.7472    0.0000 C    0  0  0  0  0  0  0  0  0  0  0  0
   10.7266   -4.4429    0.0000 C    0  0  0  0  0  0  0  0  0  0  0  0
    8.7305   -5.5954    0.0000 C    0  0  0  0  0  0  0  0  0  0  0  0
    9.3963   -4.4433    0.0000 C    0  0  0  0  0  0  0  0  0  0  0  0
   12.0559   -9.0498    0.0000 C    0  0  0  0  0  0  0  0  0  0  0  0
   13.3864   -9.0498    0.0000 C    0  0  0  0  0  0  0  0  0  0  0  0
   11.3903  -10.2022    0.0000 C    0  0  0  0  0  0  0  0  0  0  0  0
   14.0466  -10.1932    0.0000 C    0  0  0  0  0  0  0  0  0  0  0  0
   12.0504  -11.3457    0.0000 C    0  0  0  0  0  0  0  0  0  0  0  0
   13.3811  -11.3450    0.0000 C    0  0  0  0  0  0  0  0  0  0  0  0
    7.9361   -9.8931    0.0000 C    0  0  0  0  0  0  0  0  0  0  0  0
    7.9354   -8.5625    0.0000 C    0  0  0  0  0  0  0  0  0  0  0  0
    9.0835  -10.5510    0.0000 C    0  0  0  0  0  0  0  0  0  0  0  0
    9.0873   -7.8975    0.0000 C    0  0  0  0  0  0  0  0  0  0  0  0
   10.2353   -9.8860    0.0000 C    0  0  0  0  0  0  0  0  0  0  0  0
   10.2393   -8.5634    0.0000 C    0  0  0  0  0  0  0  0  0  0  0  0
   13.1938   -6.9361    0.0000 Rh   0  5  0  0  0  0  0  0  0  0  0  0
   12.4716   -6.0103    0.0000 C    0  0  0  0  0  0  0  0  0  0  0  0
   11.7319   -4.9250    0.0000 N    0  3  0  0  0  0  0  0  0  0  0  0
   15.3548   -6.4492    0.0000 P    0  0  0  0  0  0  0  0  0  0  0  0
   15.8071   -7.6928    0.0000 C    0  0  0  0  0  0  0  0  0  0  0  0
   17.1200   -7.9280    0.0000 C    0  0  0  0  0  0  0  0  0  0  0  0
   14.9548   -8.7173    0.0000 C    0  0  0  0  0  0  0  0  0  0  0  0
   17.5673   -9.1639    0.0000 C    0  0  0  0  0  0  0  0  0  0  0  0
   15.4065   -9.9608    0.0000 C    0  0  0  0  0  0  0  0  0  0  0  0
   16.7153  -10.1881    0.0000 C    0  0  0  0  0  0  0  0  0  0  0  0
   14.8984   -5.1978    0.0000 C    0  0  0  0  0  0  0  0  0  0  0  0
   13.5900   -4.9702    0.0000 C    0  0  0  0  0  0  0  0  0  0  0  0
   15.7431   -4.1777    0.0000 C    0  0  0  0  0  0  0  0  0  0  0  0
   13.1260   -3.7231    0.0000 C    0  0  0  0  0  0  0  0  0  0  0  0
   15.2862   -2.9260    0.0000 C    0  0  0  0  0  0  0  0  0  0  0  0
   13.9779   -2.6988    0.0000 C    0  0  0  0  0  0  0  0  0  0  0  0
   19.0975   -5.0768    0.0000 C    0  0  0  0  0  0  0  0  0  0  0  0
   18.8703   -6.3850    0.0000 C    0  0  0  0  0  0  0  0  0  0  0  0
   18.0810   -4.2199    0.0000 C    0  0  0  0  0  0  0  0  0  0  0  0
   17.6189   -6.8414    0.0000 C    0  0  0  0  0  0  0  0  0  0  0  0
   16.8292   -4.6764    0.0000 C    0  0  0  0  0  0  0  0  0  0  0  0
   16.6022   -5.9850    0.0000 C    0  0  0  0  0  0  0  0  0  0  0  0
   10.7201   -3.4772    0.0000 B    0  0  0  0  0  0  0  0  0  0  0  0
  1  2  1  0  0  0  0
  1  3  2  0  0  0  0
  2  4  2  0  0  0  0
  3  5  1  0  0  0  0
  4  6  1  0  0  0  0
  5  6  2  0  0  0  0
  7  8  1  0  0  0  0
  7  9  2  0  0  0  0
  8 10  2  0  0  0  0
  9 11  1  0  0  0  0
 10 12  1  0  0  0  0
 11 12  2  0  0  0  0
 13 14  1  0  0  0  0
 13 15  2  0  0  0  0
 14 16  2  0  0  0  0
 15 17  1  0  0  0  0
 16 18  1  0  0  0  0
 17 18  2  0  0  0  0
 19 20  1  0  0  0  0
 19 21  2  0  0  0  0
 20 22  2  0  0  0  0
 21 23  1  0  0  0  0
 22 24  1  0  0  0  0
 23 24  2  0  0  0  0
 26 27  1  0  0  0  0
 26 28  2  0  0  0  0
 27 29  2  0  0  0  0
 28 30  1  0  0  0  0
 29 31  1  0  0  0  0
 30 31  2  0  0  0  0
 25 26  1  0  0  0  0
 32 33  1  0  0  0  0
 32 34  2  0  0  0  0
 33 35  2  0  0  0  0
 34 36  1  0  0  0  0
 35 37  1  0  0  0  0
 36 37  2  0  0  0  0
 25 32  1  0  0  0  0
 38 39  1  0  0  0  0
 38 40  2  0  0  0  0
 39 41  2  0  0  0  0
 40 42  1  0  0  0  0
 41 43  1  0  0  0  0
 42 43  2  0  0  0  0
 25 43  1  0  0  0  0
 45 46  3  0  0  0  0
 44 45  1  0  0  0  0
 44 47  1  0  0  0  0
 48 49  1  0  0  0  0
 48 50  2  0  0  0  0
 49 51  2  0  0  0  0
 50 52  1  0  0  0  0
 51 53  1  0  0  0  0
 52 53  2  0  0  0  0
 47 48  1  0  0  0  0
 54 55  1  0  0  0  0
 54 56  2  0  0  0  0
 55 57  2  0  0  0  0
 56 58  1  0  0  0  0
 57 59  1  0  0  0  0
 58 59  2  0  0  0  0
 47 54  1  0  0  0  0
 60 61  1  0  0  0  0
 60 62  2  0  0  0  0
 61 63  2  0  0  0  0
 62 64  1  0  0  0  0
 63 65  1  0  0  0  0
 64 65  2  0  0  0  0
 47 65  1  0  0  0  0
 25 44  1  0  0  0  0
 46 66  1  0  0  0  0
 20 66  1  0  0  0  0
 14 66  1  0  0  0  0
 10 66  1  0  0  0  0
  3 44  1  0  0  0  0
M  END
> <NMREDATA_VERSION>
1.1

> <NMREDATA_LEVEL>
0

> <NMREDATA_SOLVENT>
toluene-d8

> <NMREDATA_TEMPERATURE>
247

> <NMREDATA_FORMULA>
C60H52BN2P2Rh

> <NMREDATA_SMILES>
c1ccc(cc1)[B](c1ccccc1)(c1ccccc1)N#C[Rh](P(c1ccccc1)(c1ccccc1)c1ccccc1)(P(c1ccccc1)(c1ccccc1)c1ccccc1)c1ccncc1

> <NMREDATA_ASSIGNMENT>
Rh44, -233.00, 44

> <NMREDATA_1D_103Rh>
-233.00, L=Rh44

$$$$

  ACD/LABS03092411112D

 34 37  0  0  0  0  0  0  0  0  1 V2000
   16.4779  -11.0007    0.0000 C    0  0  0  0  0  0  0  0  0  0  0  0
   16.4774  -12.3312    0.0000 C    0  0  0  0  0  0  0  0  0  0  0  0
   15.3264  -10.3358    0.0000 C    0  0  0  0  0  0  0  0  0  0  0  0
   15.3252  -12.9971    0.0000 C    0  0  0  0  0  0  0  0  0  0  0  0
   14.1743  -11.0015    0.0000 C    0  0  0  0  0  0  0  0  0  0  0  0
   14.1737  -12.3323    0.0000 C    0  0  0  0  0  0  0  0  0  0  0  0
   11.3916   -9.1903    0.0000 C    0  0  0  0  0  0  0  0  0  0  0  0
   10.7259   -8.0383    0.0000 C    0  0  0  0  0  0  0  0  0  0  0  0
   12.7140   -9.1861    0.0000 C    0  0  0  0  0  0  0  0  0  0  0  0
   11.3909   -6.8865    0.0000 C    0  0  0  0  0  0  0  0  0  0  0  0
   13.3790   -8.0343    0.0000 C    0  0  0  0  0  0  0  0  0  0  0  0
   12.7215   -6.8869    0.0000 C    0  0  0  0  0  0  0  0  0  0  0  0
    8.7358  -11.4854    0.0000 C    0  0  0  0  0  0  0  0  0  0  0  0
   10.0663  -11.4858    0.0000 C    0  0  0  0  0  0  0  0  0  0  0  0
    8.0709  -12.6369    0.0000 C    0  0  0  0  0  0  0  0  0  0  0  0
   10.7239  -12.6332    0.0000 C    0  0  0  0  0  0  0  0  0  0  0  0
    8.7366  -13.7889    0.0000 C    0  0  0  0  0  0  0  0  0  0  0  0
   10.0590  -13.7847    0.0000 C    0  0  0  0  0  0  0  0  0  0  0  0
    9.5748   -9.6771    0.0000 Rh   0  0  0  0  0  0  0  0  0  0  0  0
    8.5629  -10.5255    0.0000 H    0  0  0  0  0  0  0  0  0  0  0  0
    9.8084   -8.3683    0.0000 C    0  0  0  0  0  0  0  0  0  0  0  0
   10.0464   -7.0523    0.0000 O    0  0  0  0  0  0  0  0  0  0  0  0
    8.4233   -9.0123    0.0000 C    0  0  0  0  0  0  0  0  0  0  0  0
    7.2717   -8.3474    0.0000 O    0  0  0  0  0  0  0  0  0  0  0  0
   10.7266  -10.3421    0.0000 P    0  0  0  0  0  0  0  0  0  0  0  0
   11.8703  -11.0024    0.0000 C    0  0  0  0  0  0  0  0  0  0  0  0
   11.8745  -12.3249    0.0000 C    0  0  0  0  0  0  0  0  0  0  0  0
   13.0263  -12.9899    0.0000 P    0  0  0  0  0  0  0  0  0  0  0  0
   13.0302  -14.3128    0.0000 C    0  0  0  0  0  0  0  0  0  0  0  0
   14.1818  -14.9777    0.0000 C    0  0  0  0  0  0  0  0  0  0  0  0
   11.8782  -14.9785    0.0000 C    0  0  0  0  0  0  0  0  0  0  0  0
   14.1813  -16.3082    0.0000 C    0  0  0  0  0  0  0  0  0  0  0  0
   11.8777  -16.3090    0.0000 C    0  0  0  0  0  0  0  0  0  0  0  0
   13.0293  -16.9739    0.0000 C    0  0  0  0  0  0  0  0  0  0  0  0
  1  2  1  0  0  0  0
  1  3  2  0  0  0  0
  2  4  2  0  0  0  0
  3  5  1  0  0  0  0
  4  6  1  0  0  0  0
  5  6  2  0  0  0  0
  7  8  1  0  0  0  0
  7  9  2  0  0  0  0
  8 10  2  0  0  0  0
  9 11  1  0  0  0  0
 10 12  1  0  0  0  0
 11 12  2  0  0  0  0
 13 14  1  0  0  0  0
 13 15  2  0  0  0  0
 14 16  2  0  0  0  0
 15 17  1  0  0  0  0
 16 18  1  0  0  0  0
 17 18  2  0  0  0  0
 19 20  1  0  0  0  0
 19 21  2  0  0  0  0
 21 22  2  0  0  0  0
 19 23  2  0  0  0  0
 23 24  2  0  0  0  0
 19 25  1  0  0  0  0
 14 25  1  0  0  0  0
  7 25  1  0  0  0  0
 25 26  1  0  0  0  0
 26 27  1  0  0  0  0
 27 28  1  0  0  0  0
 29 30  1  0  0  0  0
 29 31  2  0  0  0  0
 30 32  2  0  0  0  0
 31 33  1  0  0  0  0
 32 34  1  0  0  0  0
 33 34  2  0  0  0  0
 28 29  1  0  0  0  0
  6 28  1  0  0  0  0
M  END
> <NMREDATA_VERSION>
1.1

> <NMREDATA_LEVEL>
0

> <NMREDATA_SOLVENT>
THF

> <NMREDATA_TEMPERATURE>
298

> <NMREDATA_FORMULA>
C28H26O2P2Rh

> <NMREDATA_SMILES>
O=C=[RhH](=C=O)P(c1ccccc1)(c1ccccc1)CCP(c1ccccc1)c1ccccc1

> <NMREDATA_ASSIGNMENT>
Rh19, -1073.00, 19

> <NMREDATA_1D_103Rh>
-1073.00, L=Rh19

$$$$

  ACD/LABS03092411112D

 35 38  0  0  0  0  0  0  0  0  1 V2000
   10.5012   -6.3239    0.0000 C    0  0  0  0  0  0  0  0  0  0  0  0
   11.8146   -6.5496    0.0000 C    0  0  0  0  0  0  0  0  0  0  0  0
   10.0487   -5.0693    0.0000 C    0  0  0  0  0  0  0  0  0  0  0  0
   12.6701   -5.5286    0.0000 C    0  0  0  0  0  0  0  0  0  0  0  0
   10.8997   -4.0560    0.0000 C    0  0  0  0  0  0  0  0  0  0  0  0
   12.2128   -4.2816    0.0000 C    0  0  0  0  0  0  0  0  0  0  0  0
    7.6668   -8.4849    0.0000 C    0  0  0  0  0  0  0  0  0  0  0  0
    8.9976   -8.4854    0.0000 C    0  0  0  0  0  0  0  0  0  0  0  0
    7.0020   -9.6364    0.0000 C    0  0  0  0  0  0  0  0  0  0  0  0
    9.6556   -9.6331    0.0000 C    0  0  0  0  0  0  0  0  0  0  0  0
    7.6678  -10.7887    0.0000 C    0  0  0  0  0  0  0  0  0  0  0  0
    8.9908  -10.7846    0.0000 C    0  0  0  0  0  0  0  0  0  0  0  0
    8.4986   -6.6723    0.0000 Rh   0  0  0  0  0  0  0  0  0  0  0  0
    7.4897   -7.5327    0.0000 H    0  0  0  0  0  0  0  0  0  0  0  0
    8.9581   -5.4330    0.0000 C    0  0  0  0  0  0  0  0  0  0  0  0
    9.4148   -4.1812    0.0000 O    0  0  0  0  0  0  0  0  0  0  0  0
    7.3468   -6.0073    0.0000 C    0  0  0  0  0  0  0  0  0  0  0  0
    6.1953   -5.3425    0.0000 O    0  0  0  0  0  0  0  0  0  0  0  0
    9.6501   -7.3372    0.0000 P    0  0  0  0  0  0  0  0  0  0  0  0
   10.8019   -8.0022    0.0000 C    0  0  0  0  0  0  0  0  0  0  0  0
   10.8058   -9.3247    0.0000 C    0  0  0  0  0  0  0  0  0  0  0  0
    8.5008  -13.3171    0.0000 C    0  0  0  0  0  0  0  0  0  0  0  0
    9.6523  -13.9819    0.0000 C    0  0  0  0  0  0  0  0  0  0  0  0
    8.5090  -11.9908    0.0000 C    0  0  0  0  0  0  0  0  0  0  0  0
   10.8045  -13.3162    0.0000 C    0  0  0  0  0  0  0  0  0  0  0  0
    9.6533  -11.3209    0.0000 C    0  0  0  0  0  0  0  0  0  0  0  0
   10.8048  -11.9857    0.0000 C    0  0  0  0  0  0  0  0  0  0  0  0
   11.9573   -9.9895    0.0000 C    0  0  0  0  0  0  0  0  0  0  0  0
   11.9571  -11.3199    0.0000 P    0  0  0  0  0  0  0  0  0  0  0  0
   13.1086  -11.9847    0.0000 C    0  0  0  0  0  0  0  0  0  0  0  0
   14.2606  -11.3193    0.0000 C    0  0  0  0  0  0  0  0  0  0  0  0
   13.1081  -13.3155    0.0000 C    0  0  0  0  0  0  0  0  0  0  0  0
   15.4125  -11.9843    0.0000 C    0  0  0  0  0  0  0  0  0  0  0  0
   14.2599  -13.9805    0.0000 C    0  0  0  0  0  0  0  0  0  0  0  0
   15.4119  -13.3145    0.0000 C    0  0  0  0  0  0  0  0  0  0  0  0
  1  2  1  0  0  0  0
  1  3  2  0  0  0  0
  2  4  2  0  0  0  0
  3  5  1  0  0  0  0
  4  6  1  0  0  0  0
  5  6  2  0  0  0  0
  7  8  1  0  0  0  0
  7  9  2  0  0  0  0
  8 10  2  0  0  0  0
  9 11  1  0  0  0  0
 10 12  1  0  0  0  0
 11 12  2  0  0  0  0
 13 14  1  0  0  0  0
 13 15  2  0  0  0  0
 15 16  2  0  0  0  0
 13 17  2  0  0  0  0
 17 18  2  0  0  0  0
 13 19  1  0  0  0  0
  8 19  1  0  0  0  0
  1 19  1  0  0  0  0
 19 20  1  0  0  0  0
 20 21  1  0  0  0  0
 22 23  1  0  0  0  0
 22 24  2  0  0  0  0
 23 25  2  0  0  0  0
 24 26  1  0  0  0  0
 25 27  1  0  0  0  0
 26 27  2  0  0  0  0
 28 29  1  0  0  0  0
 30 31  1  0  0  0  0
 30 32  2  0  0  0  0
 31 33  2  0  0  0  0
 32 34  1  0  0  0  0
 33 35  1  0  0  0  0
 34 35  2  0  0  0  0
 29 30  1  0  0  0  0
 27 29  1  0  0  0  0
 21 28  1  0  0  0  0
M  END
> <NMREDATA_VERSION>
1.1

> <NMREDATA_LEVEL>
0

> <NMREDATA_SOLVENT>
THF

> <NMREDATA_TEMPERATURE>
298

> <NMREDATA_FORMULA>
C29H28O2P2Rh

> <NMREDATA_SMILES>
O=C=[RhH](=C=O)P(c1ccccc1)(c1ccccc1)CCCP(c1ccccc1)c1ccccc1

> <NMREDATA_ASSIGNMENT>
Rh13, -955.00, 13

> <NMREDATA_1D_103Rh>
-955.00, L=Rh13

$$$$

  ACD/LABS03092411152D

 46 51  0  0  0  0  0  0  0  0  1 V2000
    9.7220   -7.9298    0.0000 Rh   0  0  0  0  0  0  0  0  0  0  0  0
   10.1787   -9.1819    0.0000 H    0  0  0  0  0  0  0  0  0  0  0  0
    9.2731   -6.6732    0.0000 C    0  0  0  0  0  0  0  0  0  0  0  0
    8.8209   -5.4287    0.0000 O    0  0  0  0  0  0  0  0  0  0  0  0
    8.4775   -8.3820    0.0000 C    0  0  0  0  0  0  0  0  0  0  0  0
    7.1640   -8.6077    0.0000 O    0  0  0  0  0  0  0  0  0  0  0  0
   13.2323   -7.8903    0.0000 C    0  0  0  0  0  0  0  0  0  0  0  0
   11.9959   -8.3379    0.0000 C    0  0  0  0  0  0  0  0  0  0  0  0
   13.4720   -6.5841    0.0000 C    0  0  0  0  0  0  0  0  0  0  0  0
   10.9790   -7.4806    0.0000 C    0  0  0  0  0  0  0  0  0  0  0  0
   12.4550   -5.7274    0.0000 C    0  0  0  0  0  0  0  0  0  0  0  0
   11.2141   -6.1673    0.0000 C    0  0  0  0  0  0  0  0  0  0  0  0
   14.2447   -8.7389    0.0000 C    0  0  0  0  0  0  0  0  0  0  0  0
   14.0178  -10.0479    0.0000 C    0  0  0  0  0  0  0  0  0  0  0  0
   15.5013   -8.2900    0.0000 C    0  0  0  0  0  0  0  0  0  0  0  0
   15.0270  -10.9096    0.0000 C    0  0  0  0  0  0  0  0  0  0  0  0
   16.5185   -9.1470    0.0000 C    0  0  0  0  0  0  0  0  0  0  0  0
   16.2836  -10.4607    0.0000 C    0  0  0  0  0  0  0  0  0  0  0  0
   11.4795  -11.1859    0.0000 C    0  0  0  0  0  0  0  0  0  0  0  0
   10.3226  -11.8437    0.0000 P    0  0  0  0  0  0  0  0  0  0  0  0
    6.8686  -11.1649    0.0000 C    0  0  0  0  0  0  0  0  0  0  0  0
    8.0132  -11.8352    0.0000 C    0  0  0  0  0  0  0  0  0  0  0  0
    6.8799   -9.8370    0.0000 C    0  0  0  0  0  0  0  0  0  0  0  0
    9.1701  -11.1774    0.0000 C    0  0  0  0  0  0  0  0  0  0  0  0
    8.0369   -9.1793    0.0000 C    0  0  0  0  0  0  0  0  0  0  0  0
    9.1817   -9.8499    0.0000 C    0  0  0  0  0  0  0  0  0  0  0  0
   10.2996  -15.8308    0.0000 C    0  0  0  0  0  0  0  0  0  0  0  0
   11.4562  -15.1732    0.0000 C    0  0  0  0  0  0  0  0  0  0  0  0
    9.1468  -15.1648    0.0000 C    0  0  0  0  0  0  0  0  0  0  0  0
   11.4602  -13.8495    0.0000 C    0  0  0  0  0  0  0  0  0  0  0  0
    9.1585  -13.8366    0.0000 C    0  0  0  0  0  0  0  0  0  0  0  0
   10.3110  -13.1712    0.0000 C    0  0  0  0  0  0  0  0  0  0  0  0
   15.7414   -6.9845    0.0000 C    0  0  0  0  0  0  0  0  0  0  0  0
   16.9857   -6.5320    0.0000 P    0  0  0  0  0  0  0  0  0  0  0  0
   20.0368   -9.1029    0.0000 C    0  0  0  0  0  0  0  0  0  0  0  0
   18.7847   -9.5595    0.0000 C    0  0  0  0  0  0  0  0  0  0  0  0
   20.2765   -7.7967    0.0000 C    0  0  0  0  0  0  0  0  0  0  0  0
   17.7674   -8.7025    0.0000 C    0  0  0  0  0  0  0  0  0  0  0  0
   19.2595   -6.9400    0.0000 C    0  0  0  0  0  0  0  0  0  0  0  0
   18.0027   -7.3886    0.0000 C    0  0  0  0  0  0  0  0  0  0  0  0
   18.7173   -3.4639    0.0000 C    0  0  0  0  0  0  0  0  0  0  0  0
   17.7001   -2.6069    0.0000 C    0  0  0  0  0  0  0  0  0  0  0  0
   18.4818   -4.7774    0.0000 C    0  0  0  0  0  0  0  0  0  0  0  0
   16.4479   -3.0635    0.0000 C    0  0  0  0  0  0  0  0  0  0  0  0
   17.2252   -5.2263    0.0000 C    0  0  0  0  0  0  0  0  0  0  0  0
   16.2082   -4.3697    0.0000 C    0  0  0  0  0  0  0  0  0  0  0  0
  1  2  1  0  0  0  0
  1  3  2  0  0  0  0
  3  4  2  0  0  0  0
  1  5  2  0  0  0  0
  5  6  2  0  0  0  0
  7  8  1  0  0  0  0
  7  9  2  0  0  0  0
  8 10  2  0  0  0  0
  9 11  1  0  0  0  0
 10 12  1  0  0  0  0
 11 12  2  0  0  0  0
 13 14  1  0  0  0  0
 13 15  2  0  0  0  0
 14 16  2  0  0  0  0
 15 17  1  0  0  0  0
 16 18  1  0  0  0  0
 17 18  2  0  0  0  0
  7 13  1  0  0  0  0
  8 19  1  0  0  0  0
 21 22  1  0  0  0  0
 21 23  2  0  0  0  0
 22 24  2  0  0  0  0
 23 25  1  0  0  0  0
 24 26  1  0  0  0  0
 25 26  2  0  0  0  0
 20 24  1  0  0  0  0
 27 28  1  0  0  0  0
 27 29  2  0  0  0  0
 28 30  2  0  0  0  0
 29 31  1  0  0  0  0
 30 32  1  0  0  0  0
 31 32  2  0  0  0  0
 20 32  1  0  0  0  0
 19 20  1  0  0  0  0
 15 33  1  0  0  0  0
 35 36  1  0  0  0  0
 35 37  2  0  0  0  0
 36 38  2  0  0  0  0
 37 39  1  0  0  0  0
 38 40  1  0  0  0  0
 39 40  2  0  0  0  0
 34 40  1  0  0  0  0
 41 42  1  0  0  0  0
 41 43  2  0  0  0  0
 42 44  2  0  0  0  0
 43 45  1  0  0  0  0
 44 46  1  0  0  0  0
 45 46  2  0  0  0  0
 34 45  1  0  0  0  0
 33 34  1  0  0  0  0
  1 10  1  0  0  0  0
M  END
> <NMREDATA_VERSION>
1.1

> <NMREDATA_LEVEL>
0

> <NMREDATA_SOLVENT>
C6D6

> <NMREDATA_TEMPERATURE>
298

> <NMREDATA_FORMULA>
C40H32O2P2Rh

> <NMREDATA_SMILES>
O=C=[RhH](=C=O)c1cccc(c1CP(c1ccccc1)c1ccccc1)c1ccccc1CP(c1ccccc1)c1ccccc1

> <NMREDATA_ASSIGNMENT>
Rh1, -898.00, 1

> <NMREDATA_1D_103Rh>
-898.00, L=Rh1

$$$$

  ACD/LABS03092411172D

 46 51  0  0  0  0  0  0  0  0  1 V2000
   13.3777  -10.2884    0.0000 Rh   0  0  0  0  0  0  0  0  0  0  0  0
   12.1186   -9.8795    0.0000 H    0  0  0  0  0  0  0  0  0  0  0  0
   14.6350   -9.8792    0.0000 C    0  0  0  0  0  0  0  0  0  0  0  0
   15.8884   -9.4622    0.0000 O    0  0  0  0  0  0  0  0  0  0  0  0
   12.4290  -11.2146    0.0000 C    0  0  0  0  0  0  0  0  0  0  0  0
   11.4633  -12.1299    0.0000 O    0  0  0  0  0  0  0  0  0  0  0  0
   13.3774   -8.9584    0.0000 O    0  0  0  0  0  0  0  0  0  0  0  0
   12.2257   -8.2932    0.0000 C    0  0  0  0  0  0  0  0  0  0  0  0
   12.2254   -6.9632    0.0000 C    0  0  0  0  0  0  0  0  0  0  0  0
   11.0748   -8.9577    0.0000 C    0  0  0  0  0  0  0  0  0  0  0  0
   11.0735   -6.2975    0.0000 C    0  0  0  0  0  0  0  0  0  0  0  0
    9.9232   -8.2924    0.0000 C    0  0  0  0  0  0  0  0  0  0  0  0
    9.9226   -6.9620    0.0000 C    0  0  0  0  0  0  0  0  0  0  0  0
   13.2380   -6.1125    0.0000 P    0  0  0  0  0  0  0  0  0  0  0  0
   16.7553   -6.1789    0.0000 C    0  0  0  0  0  0  0  0  0  0  0  0
   15.5090   -5.7221    0.0000 C    0  0  0  0  0  0  0  0  0  0  0  0
   16.9810   -7.4917    0.0000 C    0  0  0  0  0  0  0  0  0  0  0  0
   14.4885   -6.5775    0.0000 C    0  0  0  0  0  0  0  0  0  0  0  0
   15.9636   -8.3350    0.0000 C    0  0  0  0  0  0  0  0  0  0  0  0
   14.7099   -7.8820    0.0000 C    0  0  0  0  0  0  0  0  0  0  0  0
   12.5499   -2.1918    0.0000 C    0  0  0  0  0  0  0  0  0  0  0  0
   13.8038   -2.6442    0.0000 C    0  0  0  0  0  0  0  0  0  0  0  0
   11.5372   -3.0421    0.0000 C    0  0  0  0  0  0  0  0  0  0  0  0
   14.0295   -3.9570    0.0000 C    0  0  0  0  0  0  0  0  0  0  0  0
   11.7628   -4.3549    0.0000 C    0  0  0  0  0  0  0  0  0  0  0  0
   13.0087   -4.8119    0.0000 C    0  0  0  0  0  0  0  0  0  0  0  0
   14.1562  -11.3528    0.0000 O    0  0  0  0  0  0  0  0  0  0  0  0
   13.6098  -12.5683    0.0000 C    0  0  0  0  0  0  0  0  0  0  0  0
   14.3970  -13.6489    0.0000 C    0  0  0  0  0  0  0  0  0  0  0  0
   12.2881  -12.7076    0.0000 C    0  0  0  0  0  0  0  0  0  0  0  0
   13.8582  -14.8601    0.0000 C    0  0  0  0  0  0  0  0  0  0  0  0
   11.7493  -13.9187    0.0000 C    0  0  0  0  0  0  0  0  0  0  0  0
   12.5370  -14.9991    0.0000 C    0  0  0  0  0  0  0  0  0  0  0  0
   15.7240  -13.7318    0.0000 P    0  0  0  0  0  0  0  0  0  0  0  0
   18.5195  -11.6270    0.0000 C    0  0  0  0  0  0  0  0  0  0  0  0
   17.7834  -12.7270    0.0000 C    0  0  0  0  0  0  0  0  0  0  0  0
   17.9390  -10.4271    0.0000 C    0  0  0  0  0  0  0  0  0  0  0  0
   16.4521  -12.6365    0.0000 C    0  0  0  0  0  0  0  0  0  0  0  0
   16.6121  -10.3442    0.0000 C    0  0  0  0  0  0  0  0  0  0  0  0
   15.8684  -11.4485    0.0000 C    0  0  0  0  0  0  0  0  0  0  0  0
   17.4754  -17.3148    0.0000 C    0  0  0  0  0  0  0  0  0  0  0  0
   16.1441  -17.2243    0.0000 C    0  0  0  0  0  0  0  0  0  0  0  0
   18.2111  -16.2151    0.0000 C    0  0  0  0  0  0  0  0  0  0  0  0
   15.5683  -16.0317    0.0000 C    0  0  0  0  0  0  0  0  0  0  0  0
   17.6230  -15.0195    0.0000 C    0  0  0  0  0  0  0  0  0  0  0  0
   16.3045  -14.9318    0.0000 C    0  0  0  0  0  0  0  0  0  0  0  0
  1  2  1  0  0  0  0
  1  3  1  0  0  0  0
  3  4  3  0  0  0  0
  1  5  1  0  0  0  0
  5  6  3  0  0  0  0
  1  7  1  0  0  0  0
  8  9  1  0  0  0  0
  8 10  2  0  0  0  0
  9 11  2  0  0  0  0
 10 12  1  0  0  0  0
 11 13  1  0  0  0  0
 12 13  2  0  0  0  0
  7  8  1  0  0  0  0
  9 14  1  0  0  0  0
 15 16  1  0  0  0  0
 15 17  2  0  0  0  0
 16 18  2  0  0  0  0
 17 19  1  0  0  0  0
 18 20  1  0  0  0  0
 19 20  2  0  0  0  0
 14 18  1  0  0  0  0
 21 22  1  0  0  0  0
 21 23  2  0  0  0  0
 22 24  2  0  0  0  0
 23 25  1  0  0  0  0
 24 26  1  0  0  0  0
 25 26  2  0  0  0  0
 14 26  1  0  0  0  0
 28 29  1  0  0  0  0
 28 30  2  0  0  0  0
 29 31  2  0  0  0  0
 30 32  1  0  0  0  0
 31 33  1  0  0  0  0
 32 33  2  0  0  0  0
 27 28  1  0  0  0  0
 29 34  1  0  0  0  0
 35 36  1  0  0  0  0
 35 37  2  0  0  0  0
 36 38  2  0  0  0  0
 37 39  1  0  0  0  0
 38 40  1  0  0  0  0
 39 40  2  0  0  0  0
 34 38  1  0  0  0  0
 41 42  1  0  0  0  0
 41 43  2  0  0  0  0
 42 44  2  0  0  0  0
 43 45  1  0  0  0  0
 44 46  1  0  0  0  0
 45 46  2  0  0  0  0
 34 46  1  0  0  0  0
  1 27  1  0  0  0  0
M  END
> <NMREDATA_VERSION>
1.1

> <NMREDATA_LEVEL>
0

> <NMREDATA_SOLVENT>
C6D6

> <NMREDATA_TEMPERATURE>
298

> <NMREDATA_FORMULA>
C38H29O4P2Rh

> <NMREDATA_SMILES>
[O]#C[RhH](Oc1ccccc1P(c1ccccc1)c1ccccc1)(Oc1ccccc1P(c1ccccc1)c1ccccc1)C#[O]

> <NMREDATA_ASSIGNMENT>
Rh1, -829.00, 1

> <NMREDATA_1D_103Rh>
-829.00, L=Rh1

$$$$

  ACD/LABS03092411212D

 55 62  0  0  0  0  0  0  0  0  2 V2000
   11.6824  -17.9999    0.0000 P    0  0  0  0  0  0  0  0  0  0  0  0
   12.5339  -19.0201    0.0000 C    0  0  0  0  0  0  0  0  0  0  0  0
   13.8465  -18.7980    0.0000 C    0  0  0  0  0  0  0  0  0  0  0  0
   12.0816  -20.2704    0.0000 C    0  0  0  0  0  0  0  0  0  0  0  0
   14.6980  -19.8181    0.0000 C    0  0  0  0  0  0  0  0  0  0  0  0
   12.9327  -21.2901    0.0000 C    0  0  0  0  0  0  0  0  0  0  0  0
   14.2453  -21.0685    0.0000 C    0  0  0  0  0  0  0  0  0  0  0  0
   10.3698  -18.2304    0.0000 Rh   0  3  0  0  0  0  0  0  0  0  0  0
   10.1481  -16.9178    0.0000 H    0  0  0  0  0  0  0  0  0  0  0  0
   10.6003  -19.5431    0.0000 C    0  0  0  0  0  0  0  0  0  0  0  0
   10.8309  -20.8557    0.0000 O    0  0  0  0  0  0  0  0  0  0  0  0
    9.0660  -18.4610    0.0000 C    0  0  0  0  0  0  0  0  0  0  0  0
    7.7534  -18.6916    0.0000 O    0  0  0  0  0  0  0  0  0  0  0  0
   14.2453  -14.3638    0.0000 C    0  0  0  0  0  0  0  0  0  0  0  0
   13.2256  -15.2153    0.0000 C    0  0  0  0  0  0  0  0  0  0  0  0
   15.4867  -14.8160    0.0000 O    0  0  0  0  0  0  0  0  0  0  0  0
   13.4472  -16.5279    0.0000 C    0  0  0  0  0  0  0  0  0  0  0  0
   15.7084  -16.1286    0.0000 C    0  0  0  0  0  0  0  0  0  0  0  0
   14.6980  -16.9801    0.0000 C    0  0  0  0  0  0  0  0  0  0  0  0
   14.0147  -13.0605    0.0000 C    0  0  0  0  0  0  0  0  0  0  0  0
   12.7644  -12.5994    0.0000 C    0  0  0  0  0  0  0  0  0  0  0  0
   11.9753  -14.7541    0.0000 C    0  0  0  0  0  0  0  0  0  0  0  0
   11.7447  -13.4593    0.0000 C    0  0  0  0  0  0  0  0  0  0  0  0
   16.9591  -16.5898    0.0000 C    0  0  0  0  0  0  0  0  0  0  0  0
   17.1897  -17.8935    0.0000 C    0  0  0  0  0  0  0  0  0  0  0  0
   14.9192  -18.2928    0.0000 C    0  0  0  0  0  0  0  0  0  0  0  0
   16.1695  -18.7539    0.0000 C    0  0  0  0  0  0  0  0  0  0  0  0
   17.9789  -15.7294    0.0000 P    0  0  0  0  0  0  0  0  0  0  0  0
   15.0167  -10.3378    0.0000 P    0  0  0  0  0  0  0  0  0  0  0  0
   19.2915  -15.9688    0.0000 C    0  0  0  0  0  0  0  0  0  0  0  0
   20.1519  -14.9491    0.0000 C    0  0  0  0  0  0  0  0  0  0  0  0
   19.7437  -17.2196    0.0000 C    0  0  0  0  0  0  0  0  0  0  0  0
   21.4556  -15.1886    0.0000 C    0  0  0  0  0  0  0  0  0  0  0  0
   21.0475  -17.4591    0.0000 C    0  0  0  0  0  0  0  0  0  0  0  0
   21.9079  -16.4389    0.0000 C    0  0  0  0  0  0  0  0  0  0  0  0
   17.5267  -14.4791    0.0000 C    0  0  0  0  0  0  0  0  0  0  0  0
   16.2229  -14.2485    0.0000 C    0  0  0  0  0  0  0  0  0  0  0  0
   18.3871  -13.4771    0.0000 C    0  0  0  0  0  0  0  0  0  0  0  0
   15.7707  -12.9982    0.0000 C    0  0  0  0  0  0  0  0  0  0  0  0
   17.9344  -12.2179    0.0000 C    0  0  0  0  0  0  0  0  0  0  0  0
   16.6307  -11.9873    0.0000 C    0  0  0  0  0  0  0  0  0  0  0  0
   16.3293  -10.1161    0.0000 C    0  0  0  0  0  0  0  0  0  0  0  0
   17.1719  -11.1448    0.0000 C    0  0  0  0  0  0  0  0  0  0  0  0
   16.7904   -8.8743    0.0000 C    0  0  0  0  0  0  0  0  0  0  0  0
   18.4845  -10.9231    0.0000 C    0  0  0  0  0  0  0  0  0  0  0  0
   18.1031   -8.6526    0.0000 C    0  0  0  0  0  0  0  0  0  0  0  0
   18.9546   -9.6723    0.0000 C    0  0  0  0  0  0  0  0  0  0  0  0
   14.1745   -9.3176    0.0000 C    0  0  0  0  0  0  0  0  0  0  0  0
   14.6446   -8.0673    0.0000 C    0  0  0  0  0  0  0  0  0  0  0  0
   12.8619   -9.5397    0.0000 C    0  0  0  0  0  0  0  0  0  0  0  0
   13.7931   -7.0475    0.0000 C    0  0  0  0  0  0  0  0  0  0  0  0
   12.0193   -8.5106    0.0000 C    0  0  0  0  0  0  0  0  0  0  0  0
   12.4805   -7.2692    0.0000 C    0  0  0  0  0  0  0  0  0  0  0  0
   12.1435  -16.7496    0.0000 C    0  0  0  0  0  0  0  0  0  0  0  0
   12.9950  -17.7782    0.0000 C    0  0  0  0  0  0  0  0  0  0  0  0
  2  3  1  0  0  0  0
  2  4  2  0  0  0  0
  3  5  2  0  0  0  0
  4  6  1  0  0  0  0
  5  7  1  0  0  0  0
  6  7  2  0  0  0  0
  1  2  1  0  0  0  0
  8  9  1  0  0  0  0
  8 10  1  0  0  0  0
 10 11  3  0  0  0  0
  8 12  1  0  0  0  0
 12 13  3  0  0  0  0
  1  8  1  0  0  0  0
 14 16  1  0  0  0  0
 15 17  1  0  0  0  0
 16 18  1  0  0  0  0
 17 19  1  0  0  0  0
 14 20  1  0  0  0  0
 14 15  2  0  0  0  0
 20 21  2  0  0  0  0
 15 22  1  0  0  0  0
 21 23  1  0  0  0  0
 22 23  2  0  0  0  0
 18 24  1  0  0  0  0
 18 19  2  0  0  0  0
 24 25  2  0  0  0  0
 19 26  1  0  0  0  0
 25 27  1  0  0  0  0
 26 27  2  0  0  0  0
 24 28  1  0  0  0  0
 20 29  1  0  0  0  0
 30 31  1  0  0  0  0
 30 32  2  0  0  0  0
 31 33  2  0  0  0  0
 32 34  1  0  0  0  0
 33 35  1  0  0  0  0
 34 35  2  0  0  0  0
 28 30  1  0  0  0  0
 36 37  1  0  0  0  0
 36 38  2  0  0  0  0
 37 39  2  0  0  0  0
 38 40  1  0  0  0  0
 39 41  1  0  0  0  0
 40 41  2  0  0  0  0
 28 36  1  0  0  0  0
 42 43  1  0  0  0  0
 42 44  2  0  0  0  0
 43 45  2  0  0  0  0
 44 46  1  0  0  0  0
 45 47  1  0  0  0  0
 46 47  2  0  0  0  0
 29 42  1  0  0  0  0
 48 49  1  0  0  0  0
 48 50  2  0  0  0  0
 49 51  2  0  0  0  0
 50 52  1  0  0  0  0
 51 53  1  0  0  0  0
 52 53  2  0  0  0  0
 29 48  1  0  0  0  0
 17 54  1  0  0  0  0
 17 55  1  0  0  0  0
  1 54  1  0  0  0  0
M  END
> <NMREDATA_VERSION>
1.1

> <NMREDATA_LEVEL>
0

> <NMREDATA_SOLVENT>
C6D6

> <NMREDATA_TEMPERATURE>
298

> <NMREDATA_FORMULA>
C47H37O3P3Rh

> <NMREDATA_SMILES>
[O]#C[RhH](P(c1ccccc1)CC1(C)c2cccc(c2Oc2c1cccc2P(c1ccccc1)c1ccccc1)P(c1ccccc1)c1ccccc1)C#[O]

> <NMREDATA_ASSIGNMENT>
Rh8, -828.00, 8

> <NMREDATA_1D_103Rh>
-828.00, L=Rh8

$$$$

  ACD/LABS03092411212D

 51 57  0  0  0  0  0  0  0  0  2 V2000
   12.9486  -16.8550    0.0000 Si   0  0  0  0  0  0  0  0  0  0  0  0
   11.6186  -16.8550    0.0000 Rh   0  3  0  0  0  0  0  0  0  0  0  0
   11.6186  -15.5250    0.0000 H    0  0  0  0  0  0  0  0  0  0  0  0
   11.6186  -18.1850    0.0000 C    0  0  0  0  0  0  0  0  0  0  0  0
   11.6186  -19.5150    0.0000 O    0  0  0  0  0  0  0  0  0  0  0  0
   10.2886  -16.8550    0.0000 C    0  0  0  0  0  0  0  0  0  0  0  0
    8.9586  -16.8550    0.0000 O    0  0  0  0  0  0  0  0  0  0  0  0
   16.0954  -13.7082    0.0000 C    0  0  0  0  0  0  0  0  0  0  0  0
   16.0954  -15.0382    0.0000 C    0  0  0  0  0  0  0  0  0  0  0  0
   14.9436  -13.0432    0.0000 O    0  0  0  0  0  0  0  0  0  0  0  0
   14.9436  -15.7032    0.0000 C    0  0  0  0  0  0  0  0  0  0  0  0
   13.7918  -13.7082    0.0000 C    0  0  0  0  0  0  0  0  0  0  0  0
   13.7918  -15.0382    0.0000 C    0  0  0  0  0  0  0  0  0  0  0  0
   17.2472  -13.0432    0.0000 C    0  0  0  0  0  0  0  0  0  0  0  0
   18.3990  -13.7082    0.0000 C    0  0  0  0  0  0  0  0  0  0  0  0
   17.2472  -15.7032    0.0000 C    0  0  0  0  0  0  0  0  0  0  0  0
   18.3990  -15.0382    0.0000 C    0  0  0  0  0  0  0  0  0  0  0  0
   12.6400  -13.0432    0.0000 C    0  0  0  0  0  0  0  0  0  0  0  0
   11.4882  -13.7082    0.0000 C    0  0  0  0  0  0  0  0  0  0  0  0
   12.6400  -15.7032    0.0000 C    0  0  0  0  0  0  0  0  0  0  0  0
   11.4882  -15.0382    0.0000 C    0  0  0  0  0  0  0  0  0  0  0  0
   12.6400  -11.7132    0.0000 P    0  0  0  0  0  0  0  0  0  0  0  0
   17.2472  -11.7132    0.0000 P    0  0  0  0  0  0  0  0  0  0  0  0
   14.9436  -10.3832    0.0000 C    0  0  0  0  0  0  0  0  0  0  0  0
   14.9436   -9.0532    0.0000 C    0  0  0  0  0  0  0  0  0  0  0  0
   16.0954  -11.0482    0.0000 C    0  0  0  0  0  0  0  0  0  0  0  0
   16.0954   -8.3882    0.0000 C    0  0  0  0  0  0  0  0  0  0  0  0
   17.2472  -10.3832    0.0000 C    0  0  0  0  0  0  0  0  0  0  0  0
   17.2472   -9.0532    0.0000 C    0  0  0  0  0  0  0  0  0  0  0  0
   11.4882  -11.0482    0.0000 C    0  0  0  0  0  0  0  0  0  0  0  0
   10.3363  -11.7132    0.0000 C    0  0  0  0  0  0  0  0  0  0  0  0
   11.4882   -9.7182    0.0000 C    0  0  0  0  0  0  0  0  0  0  0  0
    9.1845  -11.0482    0.0000 C    0  0  0  0  0  0  0  0  0  0  0  0
   10.3363   -9.0532    0.0000 C    0  0  0  0  0  0  0  0  0  0  0  0
    9.1845   -9.7182    0.0000 C    0  0  0  0  0  0  0  0  0  0  0  0
   18.3990  -11.0482    0.0000 C    0  0  0  0  0  0  0  0  0  0  0  0
   18.3990   -9.7182    0.0000 C    0  0  0  0  0  0  0  0  0  0  0  0
   19.5509  -11.7132    0.0000 C    0  0  0  0  0  0  0  0  0  0  0  0
   19.5509   -9.0532    0.0000 C    0  0  0  0  0  0  0  0  0  0  0  0
   20.7027  -11.0482    0.0000 C    0  0  0  0  0  0  0  0  0  0  0  0
   20.7027   -9.7182    0.0000 C    0  0  0  0  0  0  0  0  0  0  0  0
   16.0954  -11.0482    0.0000 C    0  0  0  0  0  0  0  0  0  0  0  0
   14.9436  -11.7132    0.0000 C    0  0  0  0  0  0  0  0  0  0  0  0
   16.0954   -9.7182    0.0000 C    0  0  0  0  0  0  0  0  0  0  0  0
   13.7918  -11.0482    0.0000 C    0  0  0  0  0  0  0  0  0  0  0  0
   14.9436   -9.0532    0.0000 C    0  0  0  0  0  0  0  0  0  0  0  0
   13.7918   -9.7182    0.0000 C    0  0  0  0  0  0  0  0  0  0  0  0
   14.2786  -16.8550    0.0000 C    0  0  0  0  0  0  0  0  0  0  0  0
   15.6086  -16.8550    0.0000 C    0  0  0  0  0  0  0  0  0  0  0  0
   12.9486  -18.1850    0.0000 C    0  0  0  0  0  0  0  0  0  0  0  0
   12.9486  -15.5250    0.0000 C    0  0  0  0  0  0  0  0  0  0  0  0
  2  3  1  0  0  0  0
  2  4  1  0  0  0  0
  4  5  3  0  0  0  0
  2  6  1  0  0  0  0
  6  7  3  0  0  0  0
  1  2  1  0  0  0  0
  8 10  1  0  0  0  0
  9 11  1  0  0  0  0
 10 12  1  0  0  0  0
 11 13  1  0  0  0  0
  8 14  1  0  0  0  0
  8  9  2  0  0  0  0
 14 15  2  0  0  0  0
  9 16  1  0  0  0  0
 15 17  1  0  0  0  0
 16 17  2  0  0  0  0
 12 18  1  0  0  0  0
 12 13  2  0  0  0  0
 18 19  2  0  0  0  0
 13 20  1  0  0  0  0
 19 21  1  0  0  0  0
 20 21  2  0  0  0  0
 18 22  1  0  0  0  0
 14 23  1  0  0  0  0
 24 25  1  0  0  0  0
 24 26  2  0  0  0  0
 25 27  2  0  0  0  0
 26 28  1  0  0  0  0
 27 29  1  0  0  0  0
 28 29  2  0  0  0  0
 22 24  1  0  0  0  0
 30 31  1  0  0  0  0
 30 32  2  0  0  0  0
 31 33  2  0  0  0  0
 32 34  1  0  0  0  0
 33 35  1  0  0  0  0
 34 35  2  0  0  0  0
 22 30  1  0  0  0  0
 36 37  1  0  0  0  0
 36 38  2  0  0  0  0
 37 39  2  0  0  0  0
 38 40  1  0  0  0  0
 39 41  1  0  0  0  0
 40 41  2  0  0  0  0
 23 36  1  0  0  0  0
 42 43  1  0  0  0  0
 42 44  2  0  0  0  0
 43 45  2  0  0  0  0
 44 46  1  0  0  0  0
 45 47  1  0  0  0  0
 46 47  2  0  0  0  0
 23 42  1  0  0  0  0
 11 48  1  0  0  0  0
 11 49  1  0  0  0  0
  1 48  1  0  0  0  0
  1 50  1  0  0  0  0
  1 51  1  0  0  0  0
M  END
> <NMREDATA_VERSION>
1.1

> <NMREDATA_LEVEL>
0

> <NMREDATA_SOLVENT>
C6D6

> <NMREDATA_TEMPERATURE>
298

> <NMREDATA_FORMULA>
C43H38O3P2RhSi

> <NMREDATA_SMILES>
[O]#C[RhH]([Si](CC1(C)c2cccc(c2Oc2c1cccc2P(c1ccccc1)c1ccccc1)P(c1ccccc1)c1ccccc1)(C)C)C#[O]

> <NMREDATA_ASSIGNMENT>
Rh2, -817.00, 2

> <NMREDATA_1D_103Rh>
-817.00, L=Rh2

$$$$

  ACD/LABS03092411222D

 49 55  0  0  0  0  0  0  0  0  2 V2000
   12.9486  -16.8550    0.0000 S    0  0  0  0  0  0  0  0  0  0  0  0
   11.6186  -16.8550    0.0000 Rh   0  3  0  0  0  0  0  0  0  0  0  0
   11.6186  -15.5250    0.0000 H    0  0  0  0  0  0  0  0  0  0  0  0
   11.6186  -18.1850    0.0000 C    0  0  0  0  0  0  0  0  0  0  0  0
   11.6186  -19.5150    0.0000 O    0  0  0  0  0  0  0  0  0  0  0  0
   10.2886  -16.8550    0.0000 C    0  0  0  0  0  0  0  0  0  0  0  0
    8.9586  -16.8550    0.0000 O    0  0  0  0  0  0  0  0  0  0  0  0
   16.0954  -13.7082    0.0000 C    0  0  0  0  0  0  0  0  0  0  0  0
   16.0954  -15.0382    0.0000 C    0  0  0  0  0  0  0  0  0  0  0  0
   14.9436  -13.0432    0.0000 O    0  0  0  0  0  0  0  0  0  0  0  0
   14.9436  -15.7032    0.0000 C    0  0  0  0  0  0  0  0  0  0  0  0
   13.7918  -13.7082    0.0000 C    0  0  0  0  0  0  0  0  0  0  0  0
   13.7918  -15.0382    0.0000 C    0  0  0  0  0  0  0  0  0  0  0  0
   17.2472  -13.0432    0.0000 C    0  0  0  0  0  0  0  0  0  0  0  0
   18.3990  -13.7082    0.0000 C    0  0  0  0  0  0  0  0  0  0  0  0
   17.2472  -15.7032    0.0000 C    0  0  0  0  0  0  0  0  0  0  0  0
   18.3990  -15.0382    0.0000 C    0  0  0  0  0  0  0  0  0  0  0  0
   12.6400  -13.0432    0.0000 C    0  0  0  0  0  0  0  0  0  0  0  0
   11.4882  -13.7082    0.0000 C    0  0  0  0  0  0  0  0  0  0  0  0
   12.6400  -15.7032    0.0000 C    0  0  0  0  0  0  0  0  0  0  0  0
   11.4882  -15.0382    0.0000 C    0  0  0  0  0  0  0  0  0  0  0  0
   12.6400  -11.7132    0.0000 P    0  0  0  0  0  0  0  0  0  0  0  0
   17.2472  -11.7132    0.0000 P    0  0  0  0  0  0  0  0  0  0  0  0
   14.9436  -10.3832    0.0000 C    0  0  0  0  0  0  0  0  0  0  0  0
   14.9436   -9.0532    0.0000 C    0  0  0  0  0  0  0  0  0  0  0  0
   16.0954  -11.0482    0.0000 C    0  0  0  0  0  0  0  0  0  0  0  0
   16.0954   -8.3882    0.0000 C    0  0  0  0  0  0  0  0  0  0  0  0
   17.2472  -10.3832    0.0000 C    0  0  0  0  0  0  0  0  0  0  0  0
   17.2472   -9.0532    0.0000 C    0  0  0  0  0  0  0  0  0  0  0  0
   11.4882  -11.0482    0.0000 C    0  0  0  0  0  0  0  0  0  0  0  0
   10.3363  -11.7132    0.0000 C    0  0  0  0  0  0  0  0  0  0  0  0
   11.4882   -9.7182    0.0000 C    0  0  0  0  0  0  0  0  0  0  0  0
    9.1845  -11.0482    0.0000 C    0  0  0  0  0  0  0  0  0  0  0  0
   10.3363   -9.0532    0.0000 C    0  0  0  0  0  0  0  0  0  0  0  0
    9.1845   -9.7182    0.0000 C    0  0  0  0  0  0  0  0  0  0  0  0
   18.3990  -11.0482    0.0000 C    0  0  0  0  0  0  0  0  0  0  0  0
   18.3990   -9.7182    0.0000 C    0  0  0  0  0  0  0  0  0  0  0  0
   19.5509  -11.7132    0.0000 C    0  0  0  0  0  0  0  0  0  0  0  0
   19.5509   -9.0532    0.0000 C    0  0  0  0  0  0  0  0  0  0  0  0
   20.7027  -11.0482    0.0000 C    0  0  0  0  0  0  0  0  0  0  0  0
   20.7027   -9.7182    0.0000 C    0  0  0  0  0  0  0  0  0  0  0  0
   16.0954  -11.0482    0.0000 C    0  0  0  0  0  0  0  0  0  0  0  0
   14.9436  -11.7132    0.0000 C    0  0  0  0  0  0  0  0  0  0  0  0
   16.0954   -9.7182    0.0000 C    0  0  0  0  0  0  0  0  0  0  0  0
   13.7918  -11.0482    0.0000 C    0  0  0  0  0  0  0  0  0  0  0  0
   14.9436   -9.0532    0.0000 C    0  0  0  0  0  0  0  0  0  0  0  0
   13.7918   -9.7182    0.0000 C    0  0  0  0  0  0  0  0  0  0  0  0
   14.2786  -16.8550    0.0000 C    0  0  0  0  0  0  0  0  0  0  0  0
   15.6086  -16.8550    0.0000 C    0  0  0  0  0  0  0  0  0  0  0  0
  2  3  1  0  0  0  0
  2  4  1  0  0  0  0
  4  5  3  0  0  0  0
  2  6  1  0  0  0  0
  6  7  3  0  0  0  0
  1  2  1  0  0  0  0
  8 10  1  0  0  0  0
  9 11  1  0  0  0  0
 10 12  1  0  0  0  0
 11 13  1  0  0  0  0
  8 14  1  0  0  0  0
  8  9  2  0  0  0  0
 14 15  2  0  0  0  0
  9 16  1  0  0  0  0
 15 17  1  0  0  0  0
 16 17  2  0  0  0  0
 12 18  1  0  0  0  0
 12 13  2  0  0  0  0
 18 19  2  0  0  0  0
 13 20  1  0  0  0  0
 19 21  1  0  0  0  0
 20 21  2  0  0  0  0
 18 22  1  0  0  0  0
 14 23  1  0  0  0  0
 24 25  1  0  0  0  0
 24 26  2  0  0  0  0
 25 27  2  0  0  0  0
 26 28  1  0  0  0  0
 27 29  1  0  0  0  0
 28 29  2  0  0  0  0
 22 24  1  0  0  0  0
 30 31  1  0  0  0  0
 30 32  2  0  0  0  0
 31 33  2  0  0  0  0
 32 34  1  0  0  0  0
 33 35  1  0  0  0  0
 34 35  2  0  0  0  0
 22 30  1  0  0  0  0
 36 37  1  0  0  0  0
 36 38  2  0  0  0  0
 37 39  2  0  0  0  0
 38 40  1  0  0  0  0
 39 41  1  0  0  0  0
 40 41  2  0  0  0  0
 23 36  1  0  0  0  0
 42 43  1  0  0  0  0
 42 44  2  0  0  0  0
 43 45  2  0  0  0  0
 44 46  1  0  0  0  0
 45 47  1  0  0  0  0
 46 47  2  0  0  0  0
 23 42  1  0  0  0  0
 11 48  1  0  0  0  0
 11 49  1  0  0  0  0
  1 48  1  0  0  0  0
M  END
> <NMREDATA_VERSION>
1.1

> <NMREDATA_LEVEL>
0

> <NMREDATA_SOLVENT>
C6D6

> <NMREDATA_TEMPERATURE>
298

> <NMREDATA_FORMULA>
C41H32O3P2RhS

> <NMREDATA_SMILES>
[O]#C[RhH](SCC1(C)c2cccc(c2Oc2c1cccc2P(c1ccccc1)c1ccccc1)P(c1ccccc1)c1ccccc1)C#[O]

> <NMREDATA_ASSIGNMENT>
Rh2, -840.00, 2

> <NMREDATA_1D_103Rh>
-840.00, L=Rh2

$$$$

  ACD/LABS03092411222D

 51 57  0  0  0  0  0  0  0  0  2 V2000
   12.9486  -16.8550    0.0000 C    0  0  0  0  0  0  0  0  0  0  0  0
   11.6186  -16.8550    0.0000 Rh   0  3  0  0  0  0  0  0  0  0  0  0
   11.6186  -15.5250    0.0000 H    0  0  0  0  0  0  0  0  0  0  0  0
   11.6186  -18.1850    0.0000 C    0  0  0  0  0  0  0  0  0  0  0  0
   11.6186  -19.5150    0.0000 O    0  0  0  0  0  0  0  0  0  0  0  0
   10.2886  -16.8550    0.0000 C    0  0  0  0  0  0  0  0  0  0  0  0
    8.9586  -16.8550    0.0000 O    0  0  0  0  0  0  0  0  0  0  0  0
   16.0954  -13.7082    0.0000 C    0  0  0  0  0  0  0  0  0  0  0  0
   16.0954  -15.0382    0.0000 C    0  0  0  0  0  0  0  0  0  0  0  0
   14.9436  -13.0432    0.0000 O    0  0  0  0  0  0  0  0  0  0  0  0
   14.9436  -15.7032    0.0000 C    0  0  0  0  0  0  0  0  0  0  0  0
   13.7918  -13.7082    0.0000 C    0  0  0  0  0  0  0  0  0  0  0  0
   13.7918  -15.0382    0.0000 C    0  0  0  0  0  0  0  0  0  0  0  0
   17.2472  -13.0432    0.0000 C    0  0  0  0  0  0  0  0  0  0  0  0
   18.3990  -13.7082    0.0000 C    0  0  0  0  0  0  0  0  0  0  0  0
   17.2472  -15.7032    0.0000 C    0  0  0  0  0  0  0  0  0  0  0  0
   18.3990  -15.0382    0.0000 C    0  0  0  0  0  0  0  0  0  0  0  0
   12.6400  -13.0432    0.0000 C    0  0  0  0  0  0  0  0  0  0  0  0
   11.4882  -13.7082    0.0000 C    0  0  0  0  0  0  0  0  0  0  0  0
   12.6400  -15.7032    0.0000 C    0  0  0  0  0  0  0  0  0  0  0  0
   11.4882  -15.0382    0.0000 C    0  0  0  0  0  0  0  0  0  0  0  0
   12.6400  -11.7132    0.0000 P    0  0  0  0  0  0  0  0  0  0  0  0
   17.2472  -11.7132    0.0000 P    0  0  0  0  0  0  0  0  0  0  0  0
   14.9436  -10.3832    0.0000 C    0  0  0  0  0  0  0  0  0  0  0  0
   14.9436   -9.0532    0.0000 C    0  0  0  0  0  0  0  0  0  0  0  0
   16.0954  -11.0482    0.0000 C    0  0  0  0  0  0  0  0  0  0  0  0
   16.0954   -8.3882    0.0000 C    0  0  0  0  0  0  0  0  0  0  0  0
   17.2472  -10.3832    0.0000 C    0  0  0  0  0  0  0  0  0  0  0  0
   17.2472   -9.0532    0.0000 C    0  0  0  0  0  0  0  0  0  0  0  0
   11.4882  -11.0482    0.0000 C    0  0  0  0  0  0  0  0  0  0  0  0
   10.3363  -11.7132    0.0000 C    0  0  0  0  0  0  0  0  0  0  0  0
   11.4882   -9.7182    0.0000 C    0  0  0  0  0  0  0  0  0  0  0  0
    9.1845  -11.0482    0.0000 C    0  0  0  0  0  0  0  0  0  0  0  0
   10.3363   -9.0532    0.0000 C    0  0  0  0  0  0  0  0  0  0  0  0
    9.1845   -9.7182    0.0000 C    0  0  0  0  0  0  0  0  0  0  0  0
   18.3990  -11.0482    0.0000 C    0  0  0  0  0  0  0  0  0  0  0  0
   18.3990   -9.7182    0.0000 C    0  0  0  0  0  0  0  0  0  0  0  0
   19.5509  -11.7132    0.0000 C    0  0  0  0  0  0  0  0  0  0  0  0
   19.5509   -9.0532    0.0000 C    0  0  0  0  0  0  0  0  0  0  0  0
   20.7027  -11.0482    0.0000 C    0  0  0  0  0  0  0  0  0  0  0  0
   20.7027   -9.7182    0.0000 C    0  0  0  0  0  0  0  0  0  0  0  0
   16.0954  -11.0482    0.0000 C    0  0  0  0  0  0  0  0  0  0  0  0
   14.9436  -11.7132    0.0000 C    0  0  0  0  0  0  0  0  0  0  0  0
   16.0954   -9.7182    0.0000 C    0  0  0  0  0  0  0  0  0  0  0  0
   13.7918  -11.0482    0.0000 C    0  0  0  0  0  0  0  0  0  0  0  0
   14.9436   -9.0532    0.0000 C    0  0  0  0  0  0  0  0  0  0  0  0
   13.7918   -9.7182    0.0000 C    0  0  0  0  0  0  0  0  0  0  0  0
   14.2786  -16.8550    0.0000 C    0  0  0  0  0  0  0  0  0  0  0  0
   15.6086  -16.8550    0.0000 C    0  0  0  0  0  0  0  0  0  0  0  0
   13.3801  -18.4277    0.0000 C    0  0  0  0  0  0  0  0  0  0  0  0
   13.3481  -15.9600    0.0000 C    0  0  0  0  0  0  0  0  0  0  0  0
  2  3  1  0  0  0  0
  2  4  1  0  0  0  0
  4  5  3  0  0  0  0
  2  6  1  0  0  0  0
  6  7  3  0  0  0  0
  1  2  1  0  0  0  0
  8 10  1  0  0  0  0
  9 11  1  0  0  0  0
 10 12  1  0  0  0  0
 11 13  1  0  0  0  0
  8 14  1  0  0  0  0
  8  9  2  0  0  0  0
 14 15  2  0  0  0  0
  9 16  1  0  0  0  0
 15 17  1  0  0  0  0
 16 17  2  0  0  0  0
 12 18  1  0  0  0  0
 12 13  2  0  0  0  0
 18 19  2  0  0  0  0
 13 20  1  0  0  0  0
 19 21  1  0  0  0  0
 20 21  2  0  0  0  0
 18 22  1  0  0  0  0
 14 23  1  0  0  0  0
 24 25  1  0  0  0  0
 24 26  2  0  0  0  0
 25 27  2  0  0  0  0
 26 28  1  0  0  0  0
 27 29  1  0  0  0  0
 28 29  2  0  0  0  0
 22 24  1  0  0  0  0
 30 31  1  0  0  0  0
 30 32  2  0  0  0  0
 31 33  2  0  0  0  0
 32 34  1  0  0  0  0
 33 35  1  0  0  0  0
 34 35  2  0  0  0  0
 22 30  1  0  0  0  0
 36 37  1  0  0  0  0
 36 38  2  0  0  0  0
 37 39  2  0  0  0  0
 38 40  1  0  0  0  0
 39 41  1  0  0  0  0
 40 41  2  0  0  0  0
 23 36  1  0  0  0  0
 42 43  1  0  0  0  0
 42 44  2  0  0  0  0
 43 45  2  0  0  0  0
 44 46  1  0  0  0  0
 45 47  1  0  0  0  0
 46 47  2  0  0  0  0
 23 42  1  0  0  0  0
 11 48  1  0  0  0  0
 11 49  1  0  0  0  0
  1 48  1  0  0  0  0
  1 50  1  0  0  0  0
  1 51  1  0  0  0  0
M  END
> <NMREDATA_VERSION>
1.1

> <NMREDATA_LEVEL>
0

> <NMREDATA_SOLVENT>
C6D6

> <NMREDATA_TEMPERATURE>
298

> <NMREDATA_FORMULA>
C44H38O3P2Rh

> <NMREDATA_SMILES>
[O]#C[RhH](C(CC1(C)c2cccc(c2Oc2c1cccc2P(c1ccccc1)c1ccccc1)P(c1ccccc1)c1ccccc1)(C)C)C#[O]

> <NMREDATA_ASSIGNMENT>
Rh2, -801.00, 2

> <NMREDATA_1D_103Rh>
-801.00, L=Rh2

$$$$

  ACD/LABS03092411232D

 52 58  0  0  0  0  0  0  0  0  1 V2000
   12.9486  -16.8550    0.0000 C    0  0  0  0  0  0  0  0  0  0  0  0
   11.6186  -16.8550    0.0000 Rh   0  0  0  0  0  0  0  0  0  0  0  0
   11.6186  -15.5250    0.0000 H    0  0  0  0  0  0  0  0  0  0  0  0
   11.6186  -18.1850    0.0000 C    0  0  0  0  0  0  0  0  0  0  0  0
   11.6186  -19.5150    0.0000 O    0  0  0  0  0  0  0  0  0  0  0  0
   10.2886  -16.8550    0.0000 C    0  0  0  0  0  0  0  0  0  0  0  0
    8.9586  -16.8550    0.0000 O    0  0  0  0  0  0  0  0  0  0  0  0
   13.3801  -18.4277    0.0000 C    0  0  0  0  0  0  0  0  0  0  0  0
   13.3481  -15.9600    0.0000 C    0  0  0  0  0  0  0  0  0  0  0  0
   14.0852  -17.6105    0.0000 C    0  0  0  0  0  0  0  0  0  0  0  0
   16.0954  -13.7082    0.0000 C    0  0  0  0  0  0  0  0  0  0  0  0
   16.0954  -15.0382    0.0000 C    0  0  0  0  0  0  0  0  0  0  0  0
   14.9436  -13.0432    0.0000 O    0  0  0  0  0  0  0  0  0  0  0  0
   14.9436  -15.7032    0.0000 C    0  0  0  0  0  0  0  0  0  0  0  0
   13.7918  -13.7082    0.0000 C    0  0  0  0  0  0  0  0  0  0  0  0
   13.7918  -15.0382    0.0000 C    0  0  0  0  0  0  0  0  0  0  0  0
   17.2472  -13.0432    0.0000 C    0  0  0  0  0  0  0  0  0  0  0  0
   18.3990  -13.7082    0.0000 C    0  0  0  0  0  0  0  0  0  0  0  0
   17.2472  -15.7032    0.0000 C    0  0  0  0  0  0  0  0  0  0  0  0
   18.3990  -15.0382    0.0000 C    0  0  0  0  0  0  0  0  0  0  0  0
   12.6400  -13.0432    0.0000 C    0  0  0  0  0  0  0  0  0  0  0  0
   11.4882  -13.7082    0.0000 C    0  0  0  0  0  0  0  0  0  0  0  0
   12.6400  -15.7032    0.0000 C    0  0  0  0  0  0  0  0  0  0  0  0
   11.4882  -15.0382    0.0000 C    0  0  0  0  0  0  0  0  0  0  0  0
   12.6400  -11.7132    0.0000 P    0  0  0  0  0  0  0  0  0  0  0  0
   17.2472  -11.7132    0.0000 P    0  0  0  0  0  0  0  0  0  0  0  0
   14.9436  -10.3832    0.0000 C    0  0  0  0  0  0  0  0  0  0  0  0
   14.9436   -9.0532    0.0000 C    0  0  0  0  0  0  0  0  0  0  0  0
   16.0954  -11.0482    0.0000 C    0  0  0  0  0  0  0  0  0  0  0  0
   16.0954   -8.3882    0.0000 C    0  0  0  0  0  0  0  0  0  0  0  0
   17.2472  -10.3832    0.0000 C    0  0  0  0  0  0  0  0  0  0  0  0
   17.2472   -9.0532    0.0000 C    0  0  0  0  0  0  0  0  0  0  0  0
   11.4882  -11.0482    0.0000 C    0  0  0  0  0  0  0  0  0  0  0  0
   10.3363  -11.7132    0.0000 C    0  0  0  0  0  0  0  0  0  0  0  0
   11.4882   -9.7182    0.0000 C    0  0  0  0  0  0  0  0  0  0  0  0
    9.1845  -11.0482    0.0000 C    0  0  0  0  0  0  0  0  0  0  0  0
   10.3363   -9.0532    0.0000 C    0  0  0  0  0  0  0  0  0  0  0  0
    9.1845   -9.7182    0.0000 C    0  0  0  0  0  0  0  0  0  0  0  0
   18.3990  -11.0482    0.0000 C    0  0  0  0  0  0  0  0  0  0  0  0
   18.3990   -9.7182    0.0000 C    0  0  0  0  0  0  0  0  0  0  0  0
   19.5509  -11.7132    0.0000 C    0  0  0  0  0  0  0  0  0  0  0  0
   19.5509   -9.0532    0.0000 C    0  0  0  0  0  0  0  0  0  0  0  0
   20.7027  -11.0482    0.0000 C    0  0  0  0  0  0  0  0  0  0  0  0
   20.7027   -9.7182    0.0000 C    0  0  0  0  0  0  0  0  0  0  0  0
   16.0954  -11.0482    0.0000 C    0  0  0  0  0  0  0  0  0  0  0  0
   14.9436  -11.7132    0.0000 C    0  0  0  0  0  0  0  0  0  0  0  0
   16.0954   -9.7182    0.0000 C    0  0  0  0  0  0  0  0  0  0  0  0
   13.7918  -11.0482    0.0000 C    0  0  0  0  0  0  0  0  0  0  0  0
   14.9436   -9.0532    0.0000 C    0  0  0  0  0  0  0  0  0  0  0  0
   13.7918   -9.7182    0.0000 C    0  0  0  0  0  0  0  0  0  0  0  0
   15.6086  -16.8550    0.0000 C    0  0  0  0  0  0  0  0  0  0  0  0
   14.6941  -16.6971    0.0000 C    0  0  0  0  0  0  0  0  0  0  0  0
  2  3  1  0  0  0  0
  2  4  1  0  0  0  0
  4  5  3  0  0  0  0
  2  6  1  0  0  0  0
  6  7  3  0  0  0  0
  1  2  1  0  0  0  0
  1  8  1  0  0  0  0
  1  9  1  0  0  0  0
  1 10  1  0  0  0  0
 11 13  1  0  0  0  0
 12 14  1  0  0  0  0
 13 15  1  0  0  0  0
 14 16  1  0  0  0  0
 11 17  1  0  0  0  0
 11 12  2  0  0  0  0
 17 18  2  0  0  0  0
 12 19  1  0  0  0  0
 18 20  1  0  0  0  0
 19 20  2  0  0  0  0
 15 21  1  0  0  0  0
 15 16  2  0  0  0  0
 21 22  2  0  0  0  0
 16 23  1  0  0  0  0
 22 24  1  0  0  0  0
 23 24  2  0  0  0  0
 21 25  1  0  0  0  0
 17 26  1  0  0  0  0
 27 28  1  0  0  0  0
 27 29  2  0  0  0  0
 28 30  2  0  0  0  0
 29 31  1  0  0  0  0
 30 32  1  0  0  0  0
 31 32  2  0  0  0  0
 25 27  1  0  0  0  0
 33 34  1  0  0  0  0
 33 35  2  0  0  0  0
 34 36  2  0  0  0  0
 35 37  1  0  0  0  0
 36 38  1  0  0  0  0
 37 38  2  0  0  0  0
 25 33  1  0  0  0  0
 39 40  1  0  0  0  0
 39 41  2  0  0  0  0
 40 42  2  0  0  0  0
 41 43  1  0  0  0  0
 42 44  1  0  0  0  0
 43 44  2  0  0  0  0
 26 39  1  0  0  0  0
 45 46  1  0  0  0  0
 45 47  2  0  0  0  0
 46 48  2  0  0  0  0
 47 49  1  0  0  0  0
 48 50  1  0  0  0  0
 49 50  2  0  0  0  0
 26 45  1  0  0  0  0
 14 51  1  0  0  0  0
 14 52  1  0  0  0  0
 10 52  3  0  0  0  0
M  END
> <NMREDATA_VERSION>
1.1

> <NMREDATA_LEVEL>
0

> <NMREDATA_SOLVENT>
C6D6

> <NMREDATA_TEMPERATURE>
298

> <NMREDATA_FORMULA>
C45H36O3P2Rh

> <NMREDATA_SMILES>
[O]#C[RhH](C(C#CC1(C)c2cccc(c2Oc2c1cccc2P(c1ccccc1)c1ccccc1)P(c1ccccc1)c1ccccc1)(C)C)C#[O]

> <NMREDATA_ASSIGNMENT>
Rh2, -821.00, 2

> <NMREDATA_1D_103Rh>
-821.00, L=Rh2

$$$$

  ACD/LABS03112411002D

 44 49  0  0  0  0  0  0  0  0  2 V2000
   14.5961  -28.8354    0.0000 C    0  0  0  0  0  0  0  0  0  0  0  0
   14.5961  -30.1654    0.0000 C    0  0  0  0  0  0  0  0  0  0  0  0
   13.4442  -28.1704    0.0000 C    0  0  0  0  0  0  0  0  0  0  0  0
   13.4442  -30.8304    0.0000 C    0  0  0  0  0  0  0  0  0  0  0  0
   12.2924  -28.8354    0.0000 C    0  0  0  0  0  0  0  0  0  0  0  0
   12.2924  -30.1654    0.0000 C    0  0  0  0  0  0  0  0  0  0  0  0
   11.2791  -28.6751    0.0000 C    0  0  0  0  0  0  0  0  0  0  0  0
   11.2791  -30.0051    0.0000 C    0  0  0  0  0  0  0  0  0  0  0  0
   10.1272  -28.0101    0.0000 C    0  0  0  0  0  0  0  0  0  0  0  0
   10.1272  -30.6701    0.0000 C    0  0  0  0  0  0  0  0  0  0  0  0
    8.9754  -28.6751    0.0000 C    0  0  0  0  0  0  0  0  0  0  0  0
    8.9754  -30.0051    0.0000 C    0  0  0  0  0  0  0  0  0  0  0  0
    9.7888  -25.8709    0.0000 C    0  0  0  0  0  0  0  0  0  0  0  0
    9.7888  -27.2009    0.0000 C    0  0  0  0  0  0  0  0  0  0  0  0
    8.6369  -25.2059    0.0000 C    0  0  0  0  0  0  0  0  0  0  0  0
    8.6369  -27.8659    0.0000 C    0  0  0  0  0  0  0  0  0  0  0  0
    7.4851  -25.8709    0.0000 C    0  0  0  0  0  0  0  0  0  0  0  0
    7.4851  -27.2009    0.0000 C    0  0  0  0  0  0  0  0  0  0  0  0
   20.9576  -24.3646    0.0000 C    0  0  0  0  0  0  0  0  0  0  0  0
   20.9576  -25.6946    0.0000 C    0  0  0  0  0  0  0  0  0  0  0  0
   19.8057  -23.6996    0.0000 C    0  0  0  0  0  0  0  0  0  0  0  0
   19.8057  -26.3596    0.0000 C    0  0  0  0  0  0  0  0  0  0  0  0
   18.6539  -24.3646    0.0000 C    0  0  0  0  0  0  0  0  0  0  0  0
   18.6539  -25.6946    0.0000 C    0  0  0  0  0  0  0  0  0  0  0  0
   19.8520  -20.5990    0.0000 C    0  0  0  0  0  0  0  0  0  0  0  0
   19.8520  -21.9290    0.0000 C    0  0  0  0  0  0  0  0  0  0  0  0
   18.7001  -19.9340    0.0000 C    0  0  0  0  0  0  0  0  0  0  0  0
   18.7001  -22.5940    0.0000 C    0  0  0  0  0  0  0  0  0  0  0  0
   17.5483  -20.5990    0.0000 C    0  0  0  0  0  0  0  0  0  0  0  0
   17.5483  -21.9290    0.0000 C    0  0  0  0  0  0  0  0  0  0  0  0
   16.6311  -18.9165    0.0000 C    0  0  0  0  0  0  0  0  0  0  0  0
   16.6311  -20.2465    0.0000 C    0  0  0  0  0  0  0  0  0  0  0  0
   15.4792  -18.2515    0.0000 C    0  0  0  0  0  0  0  0  0  0  0  0
   15.4792  -20.9115    0.0000 C    0  0  0  0  0  0  0  0  0  0  0  0
   14.3274  -18.9165    0.0000 C    0  0  0  0  0  0  0  0  0  0  0  0
   14.3274  -20.2465    0.0000 C    0  0  0  0  0  0  0  0  0  0  0  0
   14.0051  -24.9976    0.0000 Rh   0  3  0  0  0  0  0  0  0  0  0  0
   16.0241  -23.2990    0.0000 P    0  0  0  0  0  0  0  0  0  0  0  0
   12.3546  -26.3436    0.0000 P    0  0  0  0  0  0  0  0  0  0  0  0
   13.1567  -23.9733    0.0000 N    0  0  0  0  0  0  0  0  0  0  0  0
   13.6195  -22.7265    0.0000 O    0  5  0  0  0  0  0  0  0  0  0  0
   11.8454  -24.1959    0.0000 O    0  0  0  0  0  0  0  0  0  0  0  0
   15.2229  -26.1033    0.0000 C    0  0  0  0  0  0  0  0  0  0  0  0
   16.5208  -27.0327    0.0000 O    0  0  0  0  0  0  0  0  0  0  0  0
  1  2  1  0  0  0  0
  1  3  2  0  0  0  0
  2  4  2  0  0  0  0
  3  5  1  0  0  0  0
  4  6  1  0  0  0  0
  5  6  2  0  0  0  0
  7  8  1  0  0  0  0
  7  9  2  0  0  0  0
  8 10  2  0  0  0  0
  9 11  1  0  0  0  0
 10 12  1  0  0  0  0
 11 12  2  0  0  0  0
 13 14  1  0  0  0  0
 13 15  2  0  0  0  0
 14 16  2  0  0  0  0
 15 17  1  0  0  0  0
 16 18  1  0  0  0  0
 17 18  2  0  0  0  0
 19 20  1  0  0  0  0
 19 21  2  0  0  0  0
 20 22  2  0  0  0  0
 21 23  1  0  0  0  0
 22 24  1  0  0  0  0
 23 24  2  0  0  0  0
 25 26  1  0  0  0  0
 25 27  2  0  0  0  0
 26 28  2  0  0  0  0
 27 29  1  0  0  0  0
 28 30  1  0  0  0  0
 29 30  2  0  0  0  0
 31 32  1  0  0  0  0
 31 33  2  0  0  0  0
 32 34  2  0  0  0  0
 33 35  1  0  0  0  0
 34 36  1  0  0  0  0
 35 36  2  0  0  0  0
 37 38  1  0  0  0  0
 37 39  1  0  0  0  0
 34 38  1  0  0  0  0
 30 38  1  0  0  0  0
 23 38  1  0  0  0  0
 14 39  1  0  0  0  0
  7 39  1  0  0  0  0
  3 39  1  0  0  0  0
 40 41  1  0  0  0  0
 40 42  2  0  0  0  0
 37 40  1  0  0  0  0
 37 43  1  0  0  0  0
 43 44  3  0  0  0  0
M  END
> <NMREDATA_VERSION>
1.1

> <NMREDATA_LEVEL>
0

> <NMREDATA_SOLVENT>
CD2Cl2

> <NMREDATA_TEMPERATURE>
295

> <NMREDATA_FORMULA>
C37H34NO3P2Rh

> <NMREDATA_SMILES>
[O]#C[Rh](P(c1ccccc1)(c1ccccc1)c1ccccc1)(P(c1ccccc1)(c1ccccc1)c1ccccc1)N(=O)O

> <NMREDATA_ASSIGNMENT>
Rh37, -407.00, 37

> <NMREDATA_1D_103Rh>
-407.00, L=Rh37

$$$$

  ACD/LABS03112411022D

 44 49  0  0  0  0  0  0  0  0  1 V2000
   14.5961  -28.8354    0.0000 C    0  0  0  0  0  0  0  0  0  0  0  0
   14.5961  -30.1654    0.0000 C    0  0  0  0  0  0  0  0  0  0  0  0
   13.4442  -28.1704    0.0000 C    0  0  0  0  0  0  0  0  0  0  0  0
   13.4442  -30.8304    0.0000 C    0  0  0  0  0  0  0  0  0  0  0  0
   12.2924  -28.8354    0.0000 C    0  0  0  0  0  0  0  0  0  0  0  0
   12.2924  -30.1654    0.0000 C    0  0  0  0  0  0  0  0  0  0  0  0
   11.2791  -28.6751    0.0000 C    0  0  0  0  0  0  0  0  0  0  0  0
   11.2791  -30.0051    0.0000 C    0  0  0  0  0  0  0  0  0  0  0  0
   10.1272  -28.0101    0.0000 C    0  0  0  0  0  0  0  0  0  0  0  0
   10.1272  -30.6701    0.0000 C    0  0  0  0  0  0  0  0  0  0  0  0
    8.9754  -28.6751    0.0000 C    0  0  0  0  0  0  0  0  0  0  0  0
    8.9754  -30.0051    0.0000 C    0  0  0  0  0  0  0  0  0  0  0  0
    9.7888  -25.8709    0.0000 C    0  0  0  0  0  0  0  0  0  0  0  0
    9.7888  -27.2009    0.0000 C    0  0  0  0  0  0  0  0  0  0  0  0
    8.6369  -25.2059    0.0000 C    0  0  0  0  0  0  0  0  0  0  0  0
    8.6369  -27.8659    0.0000 C    0  0  0  0  0  0  0  0  0  0  0  0
    7.4851  -25.8709    0.0000 C    0  0  0  0  0  0  0  0  0  0  0  0
    7.4851  -27.2009    0.0000 C    0  0  0  0  0  0  0  0  0  0  0  0
   20.9576  -24.3646    0.0000 C    0  0  0  0  0  0  0  0  0  0  0  0
   20.9576  -25.6946    0.0000 C    0  0  0  0  0  0  0  0  0  0  0  0
   19.8057  -23.6996    0.0000 C    0  0  0  0  0  0  0  0  0  0  0  0
   19.8057  -26.3596    0.0000 C    0  0  0  0  0  0  0  0  0  0  0  0
   18.6539  -24.3646    0.0000 C    0  0  0  0  0  0  0  0  0  0  0  0
   18.6539  -25.6946    0.0000 C    0  0  0  0  0  0  0  0  0  0  0  0
   19.8520  -20.5990    0.0000 C    0  0  0  0  0  0  0  0  0  0  0  0
   19.8520  -21.9290    0.0000 C    0  0  0  0  0  0  0  0  0  0  0  0
   18.7001  -19.9340    0.0000 C    0  0  0  0  0  0  0  0  0  0  0  0
   18.7001  -22.5940    0.0000 C    0  0  0  0  0  0  0  0  0  0  0  0
   17.5483  -20.5990    0.0000 C    0  0  0  0  0  0  0  0  0  0  0  0
   17.5483  -21.9290    0.0000 C    0  0  0  0  0  0  0  0  0  0  0  0
   16.6311  -18.9165    0.0000 C    0  0  0  0  0  0  0  0  0  0  0  0
   16.6311  -20.2465    0.0000 C    0  0  0  0  0  0  0  0  0  0  0  0
   15.4792  -18.2515    0.0000 C    0  0  0  0  0  0  0  0  0  0  0  0
   15.4792  -20.9115    0.0000 C    0  0  0  0  0  0  0  0  0  0  0  0
   14.3274  -18.9165    0.0000 C    0  0  0  0  0  0  0  0  0  0  0  0
   14.3274  -20.2465    0.0000 C    0  0  0  0  0  0  0  0  0  0  0  0
   14.0051  -24.9976    0.0000 Rh   0  0  0  0  0  0  0  0  0  0  0  0
   16.0241  -23.2990    0.0000 P    0  0  0  0  0  0  0  0  0  0  0  0
   12.3546  -26.3436    0.0000 P    0  0  0  0  0  0  0  0  0  0  0  0
   15.2229  -26.1033    0.0000 C    0  0  0  0  0  0  0  0  0  0  0  0
   16.5208  -27.0327    0.0000 O    0  0  0  0  0  0  0  0  0  0  0  0
   13.1567  -23.9733    0.0000 N    0  0  0  0  0  0  0  0  0  0  0  0
   11.8454  -24.1960    0.0000 C    0  0  0  0  0  0  0  0  0  0  0  0
   10.5342  -24.4186    0.0000 S    0  0  0  0  0  0  0  0  0  0  0  0
  1  2  1  0  0  0  0
  1  3  2  0  0  0  0
  2  4  2  0  0  0  0
  3  5  1  0  0  0  0
  4  6  1  0  0  0  0
  5  6  2  0  0  0  0
  7  8  1  0  0  0  0
  7  9  2  0  0  0  0
  8 10  2  0  0  0  0
  9 11  1  0  0  0  0
 10 12  1  0  0  0  0
 11 12  2  0  0  0  0
 13 14  1  0  0  0  0
 13 15  2  0  0  0  0
 14 16  2  0  0  0  0
 15 17  1  0  0  0  0
 16 18  1  0  0  0  0
 17 18  2  0  0  0  0
 19 20  1  0  0  0  0
 19 21  2  0  0  0  0
 20 22  2  0  0  0  0
 21 23  1  0  0  0  0
 22 24  1  0  0  0  0
 23 24  2  0  0  0  0
 25 26  1  0  0  0  0
 25 27  2  0  0  0  0
 26 28  2  0  0  0  0
 27 29  1  0  0  0  0
 28 30  1  0  0  0  0
 29 30  2  0  0  0  0
 31 32  1  0  0  0  0
 31 33  2  0  0  0  0
 32 34  2  0  0  0  0
 33 35  1  0  0  0  0
 34 36  1  0  0  0  0
 35 36  2  0  0  0  0
 37 38  1  0  0  0  0
 37 39  1  0  0  0  0
 34 38  1  0  0  0  0
 30 38  1  0  0  0  0
 23 38  1  0  0  0  0
 14 39  1  0  0  0  0
  7 39  1  0  0  0  0
  3 39  1  0  0  0  0
 37 40  1  0  0  0  0
 40 41  3  0  0  0  0
 42 43  2  0  0  0  0
 43 44  2  0  0  0  0
 37 42  1  0  0  0  0
M  END
> <NMREDATA_VERSION>
1.1

> <NMREDATA_LEVEL>
0

> <NMREDATA_SOLVENT>
CD2Cl2

> <NMREDATA_TEMPERATURE>
178

> <NMREDATA_FORMULA>
C38H32NOP2RhS

> <NMREDATA_SMILES>
[O]#C[Rh](P(c1ccccc1)(c1ccccc1)c1ccccc1)(P(c1ccccc1)(c1ccccc1)c1ccccc1)N=C=S

> <NMREDATA_ASSIGNMENT>
Rh37, -517.00, 37

> <NMREDATA_1D_103Rh>
-517.00, L=Rh37

$$$$

  ACD/LABS03112411022D

 44 49  0  0  0  0  0  0  0  0  1 V2000
   14.5961  -28.8354    0.0000 C    0  0  0  0  0  0  0  0  0  0  0  0
   14.5961  -30.1654    0.0000 C    0  0  0  0  0  0  0  0  0  0  0  0
   13.4442  -28.1704    0.0000 C    0  0  0  0  0  0  0  0  0  0  0  0
   13.4442  -30.8304    0.0000 C    0  0  0  0  0  0  0  0  0  0  0  0
   12.2924  -28.8354    0.0000 C    0  0  0  0  0  0  0  0  0  0  0  0
   12.2924  -30.1654    0.0000 C    0  0  0  0  0  0  0  0  0  0  0  0
   11.2791  -28.6751    0.0000 C    0  0  0  0  0  0  0  0  0  0  0  0
   11.2791  -30.0051    0.0000 C    0  0  0  0  0  0  0  0  0  0  0  0
   10.1272  -28.0101    0.0000 C    0  0  0  0  0  0  0  0  0  0  0  0
   10.1272  -30.6701    0.0000 C    0  0  0  0  0  0  0  0  0  0  0  0
    8.9754  -28.6751    0.0000 C    0  0  0  0  0  0  0  0  0  0  0  0
    8.9754  -30.0051    0.0000 C    0  0  0  0  0  0  0  0  0  0  0  0
    9.7888  -25.8709    0.0000 C    0  0  0  0  0  0  0  0  0  0  0  0
    9.7888  -27.2009    0.0000 C    0  0  0  0  0  0  0  0  0  0  0  0
    8.6369  -25.2059    0.0000 C    0  0  0  0  0  0  0  0  0  0  0  0
    8.6369  -27.8659    0.0000 C    0  0  0  0  0  0  0  0  0  0  0  0
    7.4851  -25.8709    0.0000 C    0  0  0  0  0  0  0  0  0  0  0  0
    7.4851  -27.2009    0.0000 C    0  0  0  0  0  0  0  0  0  0  0  0
   20.9576  -24.3646    0.0000 C    0  0  0  0  0  0  0  0  0  0  0  0
   20.9576  -25.6946    0.0000 C    0  0  0  0  0  0  0  0  0  0  0  0
   19.8057  -23.6996    0.0000 C    0  0  0  0  0  0  0  0  0  0  0  0
   19.8057  -26.3596    0.0000 C    0  0  0  0  0  0  0  0  0  0  0  0
   18.6539  -24.3646    0.0000 C    0  0  0  0  0  0  0  0  0  0  0  0
   18.6539  -25.6946    0.0000 C    0  0  0  0  0  0  0  0  0  0  0  0
   19.8520  -20.5990    0.0000 C    0  0  0  0  0  0  0  0  0  0  0  0
   19.8520  -21.9290    0.0000 C    0  0  0  0  0  0  0  0  0  0  0  0
   18.7001  -19.9340    0.0000 C    0  0  0  0  0  0  0  0  0  0  0  0
   18.7001  -22.5940    0.0000 C    0  0  0  0  0  0  0  0  0  0  0  0
   17.5483  -20.5990    0.0000 C    0  0  0  0  0  0  0  0  0  0  0  0
   17.5483  -21.9290    0.0000 C    0  0  0  0  0  0  0  0  0  0  0  0
   16.6311  -18.9165    0.0000 C    0  0  0  0  0  0  0  0  0  0  0  0
   16.6311  -20.2465    0.0000 C    0  0  0  0  0  0  0  0  0  0  0  0
   15.4792  -18.2515    0.0000 C    0  0  0  0  0  0  0  0  0  0  0  0
   15.4792  -20.9115    0.0000 C    0  0  0  0  0  0  0  0  0  0  0  0
   14.3274  -18.9165    0.0000 C    0  0  0  0  0  0  0  0  0  0  0  0
   14.3274  -20.2465    0.0000 C    0  0  0  0  0  0  0  0  0  0  0  0
   14.0051  -24.9976    0.0000 Rh   0  0  0  0  0  0  0  0  0  0  0  0
   16.0241  -23.2990    0.0000 P    0  0  0  0  0  0  0  0  0  0  0  0
   12.3546  -26.3436    0.0000 P    0  0  0  0  0  0  0  0  0  0  0  0
   15.2229  -26.1033    0.0000 C    0  0  0  0  0  0  0  0  0  0  0  0
   16.5208  -27.0327    0.0000 O    0  0  0  0  0  0  0  0  0  0  0  0
   13.1567  -23.9733    0.0000 N    0  0  0  0  0  0  0  0  0  0  0  0
   11.8454  -24.1960    0.0000 C    0  0  0  0  0  0  0  0  0  0  0  0
   10.5342  -24.4186    0.0000 S    0  0  0  0  0  0  0  0  0  0  0  0
  1  2  1  0  0  0  0
  1  3  2  0  0  0  0
  2  4  2  0  0  0  0
  3  5  1  0  0  0  0
  4  6  1  0  0  0  0
  5  6  2  0  0  0  0
  7  8  1  0  0  0  0
  7  9  2  0  0  0  0
  8 10  2  0  0  0  0
  9 11  1  0  0  0  0
 10 12  1  0  0  0  0
 11 12  2  0  0  0  0
 13 14  1  0  0  0  0
 13 15  2  0  0  0  0
 14 16  2  0  0  0  0
 15 17  1  0  0  0  0
 16 18  1  0  0  0  0
 17 18  2  0  0  0  0
 19 20  1  0  0  0  0
 19 21  2  0  0  0  0
 20 22  2  0  0  0  0
 21 23  1  0  0  0  0
 22 24  1  0  0  0  0
 23 24  2  0  0  0  0
 25 26  1  0  0  0  0
 25 27  2  0  0  0  0
 26 28  2  0  0  0  0
 27 29  1  0  0  0  0
 28 30  1  0  0  0  0
 29 30  2  0  0  0  0
 31 32  1  0  0  0  0
 31 33  2  0  0  0  0
 32 34  2  0  0  0  0
 33 35  1  0  0  0  0
 34 36  1  0  0  0  0
 35 36  2  0  0  0  0
 37 38  1  0  0  0  0
 37 39  1  0  0  0  0
 34 38  1  0  0  0  0
 30 38  1  0  0  0  0
 23 38  1  0  0  0  0
 14 39  1  0  0  0  0
  7 39  1  0  0  0  0
  3 39  1  0  0  0  0
 37 40  1  0  0  0  0
 40 41  3  0  0  0  0
 42 43  2  0  0  0  0
 43 44  2  0  0  0  0
 37 42  1  0  0  0  0
M  END
> <NMREDATA_VERSION>
1.1

> <NMREDATA_LEVEL>
0

> <NMREDATA_SOLVENT>
DCCl3

> <NMREDATA_TEMPERATURE>
300

> <NMREDATA_FORMULA>
C38H32NOP2RhS

> <NMREDATA_SMILES>
[O]#C[Rh](P(c1ccccc1)(c1ccccc1)c1ccccc1)(P(c1ccccc1)(c1ccccc1)c1ccccc1)N=C=S

> <NMREDATA_ASSIGNMENT>
Rh37, -453.00, 37

> <NMREDATA_1D_103Rh>
-453.00, L=Rh37

$$$$

  ACD/LABS03112411022D

 44 49  0  0  0  0  0  0  0  0  1 V2000
   14.5961  -28.8354    0.0000 C    0  0  0  0  0  0  0  0  0  0  0  0
   14.5961  -30.1654    0.0000 C    0  0  0  0  0  0  0  0  0  0  0  0
   13.4442  -28.1704    0.0000 C    0  0  0  0  0  0  0  0  0  0  0  0
   13.4442  -30.8304    0.0000 C    0  0  0  0  0  0  0  0  0  0  0  0
   12.2924  -28.8354    0.0000 C    0  0  0  0  0  0  0  0  0  0  0  0
   12.2924  -30.1654    0.0000 C    0  0  0  0  0  0  0  0  0  0  0  0
   11.2791  -28.6751    0.0000 C    0  0  0  0  0  0  0  0  0  0  0  0
   11.2791  -30.0051    0.0000 C    0  0  0  0  0  0  0  0  0  0  0  0
   10.1272  -28.0101    0.0000 C    0  0  0  0  0  0  0  0  0  0  0  0
   10.1272  -30.6701    0.0000 C    0  0  0  0  0  0  0  0  0  0  0  0
    8.9754  -28.6751    0.0000 C    0  0  0  0  0  0  0  0  0  0  0  0
    8.9754  -30.0051    0.0000 C    0  0  0  0  0  0  0  0  0  0  0  0
    9.7888  -25.8709    0.0000 C    0  0  0  0  0  0  0  0  0  0  0  0
    9.7888  -27.2009    0.0000 C    0  0  0  0  0  0  0  0  0  0  0  0
    8.6369  -25.2059    0.0000 C    0  0  0  0  0  0  0  0  0  0  0  0
    8.6369  -27.8659    0.0000 C    0  0  0  0  0  0  0  0  0  0  0  0
    7.4851  -25.8709    0.0000 C    0  0  0  0  0  0  0  0  0  0  0  0
    7.4851  -27.2009    0.0000 C    0  0  0  0  0  0  0  0  0  0  0  0
   20.9576  -24.3646    0.0000 C    0  0  0  0  0  0  0  0  0  0  0  0
   20.9576  -25.6946    0.0000 C    0  0  0  0  0  0  0  0  0  0  0  0
   19.8057  -23.6996    0.0000 C    0  0  0  0  0  0  0  0  0  0  0  0
   19.8057  -26.3596    0.0000 C    0  0  0  0  0  0  0  0  0  0  0  0
   18.6539  -24.3646    0.0000 C    0  0  0  0  0  0  0  0  0  0  0  0
   18.6539  -25.6946    0.0000 C    0  0  0  0  0  0  0  0  0  0  0  0
   19.8520  -20.5990    0.0000 C    0  0  0  0  0  0  0  0  0  0  0  0
   19.8520  -21.9290    0.0000 C    0  0  0  0  0  0  0  0  0  0  0  0
   18.7001  -19.9340    0.0000 C    0  0  0  0  0  0  0  0  0  0  0  0
   18.7001  -22.5940    0.0000 C    0  0  0  0  0  0  0  0  0  0  0  0
   17.5483  -20.5990    0.0000 C    0  0  0  0  0  0  0  0  0  0  0  0
   17.5483  -21.9290    0.0000 C    0  0  0  0  0  0  0  0  0  0  0  0
   16.6311  -18.9165    0.0000 C    0  0  0  0  0  0  0  0  0  0  0  0
   16.6311  -20.2465    0.0000 C    0  0  0  0  0  0  0  0  0  0  0  0
   15.4792  -18.2515    0.0000 C    0  0  0  0  0  0  0  0  0  0  0  0
   15.4792  -20.9115    0.0000 C    0  0  0  0  0  0  0  0  0  0  0  0
   14.3274  -18.9165    0.0000 C    0  0  0  0  0  0  0  0  0  0  0  0
   14.3274  -20.2465    0.0000 C    0  0  0  0  0  0  0  0  0  0  0  0
   14.0051  -24.9976    0.0000 Rh   0  0  0  0  0  0  0  0  0  0  0  0
   16.0241  -23.2990    0.0000 P    0  0  0  0  0  0  0  0  0  0  0  0
   12.3546  -26.3436    0.0000 P    0  0  0  0  0  0  0  0  0  0  0  0
   15.2229  -26.1033    0.0000 C    0  0  0  0  0  0  0  0  0  0  0  0
   16.5208  -27.0327    0.0000 O    0  0  0  0  0  0  0  0  0  0  0  0
   13.1567  -23.9733    0.0000 N    0  0  0  0  0  0  0  0  0  0  0  0
   11.8454  -24.1960    0.0000 C    0  0  0  0  0  0  0  0  0  0  0  0
   10.5342  -24.4186    0.0000 S    0  0  0  0  0  0  0  0  0  0  0  0
  1  2  1  0  0  0  0
  1  3  2  0  0  0  0
  2  4  2  0  0  0  0
  3  5  1  0  0  0  0
  4  6  1  0  0  0  0
  5  6  2  0  0  0  0
  7  8  1  0  0  0  0
  7  9  2  0  0  0  0
  8 10  2  0  0  0  0
  9 11  1  0  0  0  0
 10 12  1  0  0  0  0
 11 12  2  0  0  0  0
 13 14  1  0  0  0  0
 13 15  2  0  0  0  0
 14 16  2  0  0  0  0
 15 17  1  0  0  0  0
 16 18  1  0  0  0  0
 17 18  2  0  0  0  0
 19 20  1  0  0  0  0
 19 21  2  0  0  0  0
 20 22  2  0  0  0  0
 21 23  1  0  0  0  0
 22 24  1  0  0  0  0
 23 24  2  0  0  0  0
 25 26  1  0  0  0  0
 25 27  2  0  0  0  0
 26 28  2  0  0  0  0
 27 29  1  0  0  0  0
 28 30  1  0  0  0  0
 29 30  2  0  0  0  0
 31 32  1  0  0  0  0
 31 33  2  0  0  0  0
 32 34  2  0  0  0  0
 33 35  1  0  0  0  0
 34 36  1  0  0  0  0
 35 36  2  0  0  0  0
 37 38  1  0  0  0  0
 37 39  1  0  0  0  0
 34 38  1  0  0  0  0
 30 38  1  0  0  0  0
 23 38  1  0  0  0  0
 14 39  1  0  0  0  0
  7 39  1  0  0  0  0
  3 39  1  0  0  0  0
 37 40  1  0  0  0  0
 40 41  3  0  0  0  0
 42 43  2  0  0  0  0
 43 44  2  0  0  0  0
 37 42  1  0  0  0  0
M  END
> <NMREDATA_VERSION>
1.1

> <NMREDATA_LEVEL>
0

> <NMREDATA_SOLVENT>
DCCl3

> <NMREDATA_TEMPERATURE>
247

> <NMREDATA_FORMULA>
C38H32NOP2RhS

> <NMREDATA_SMILES>
[O]#C[Rh](P(c1ccccc1)(c1ccccc1)c1ccccc1)(P(c1ccccc1)(c1ccccc1)c1ccccc1)N=C=S

> <NMREDATA_ASSIGNMENT>
Rh37, -478.00, 37

> <NMREDATA_1D_103Rh>
-478.00, L=Rh37

$$$$

  ACD/LABS03112411032D

 44 49  0  0  0  0  0  0  0  0  2 V2000
   14.5961  -28.8354    0.0000 C    0  0  0  0  0  0  0  0  0  0  0  0
   14.5961  -30.1654    0.0000 C    0  0  0  0  0  0  0  0  0  0  0  0
   13.4442  -28.1704    0.0000 C    0  0  0  0  0  0  0  0  0  0  0  0
   13.4442  -30.8304    0.0000 C    0  0  0  0  0  0  0  0  0  0  0  0
   12.2924  -28.8354    0.0000 C    0  0  0  0  0  0  0  0  0  0  0  0
   12.2924  -30.1654    0.0000 C    0  0  0  0  0  0  0  0  0  0  0  0
   11.2791  -28.6751    0.0000 C    0  0  0  0  0  0  0  0  0  0  0  0
   11.2791  -30.0051    0.0000 C    0  0  0  0  0  0  0  0  0  0  0  0
   10.1272  -28.0101    0.0000 C    0  0  0  0  0  0  0  0  0  0  0  0
   10.1272  -30.6701    0.0000 C    0  0  0  0  0  0  0  0  0  0  0  0
    8.9754  -28.6751    0.0000 C    0  0  0  0  0  0  0  0  0  0  0  0
    8.9754  -30.0051    0.0000 C    0  0  0  0  0  0  0  0  0  0  0  0
    9.7888  -25.8709    0.0000 C    0  0  0  0  0  0  0  0  0  0  0  0
    9.7888  -27.2009    0.0000 C    0  0  0  0  0  0  0  0  0  0  0  0
    8.6369  -25.2059    0.0000 C    0  0  0  0  0  0  0  0  0  0  0  0
    8.6369  -27.8659    0.0000 C    0  0  0  0  0  0  0  0  0  0  0  0
    7.4851  -25.8709    0.0000 C    0  0  0  0  0  0  0  0  0  0  0  0
    7.4851  -27.2009    0.0000 C    0  0  0  0  0  0  0  0  0  0  0  0
   20.9576  -24.3646    0.0000 C    0  0  0  0  0  0  0  0  0  0  0  0
   20.9576  -25.6946    0.0000 C    0  0  0  0  0  0  0  0  0  0  0  0
   19.8057  -23.6996    0.0000 C    0  0  0  0  0  0  0  0  0  0  0  0
   19.8057  -26.3596    0.0000 C    0  0  0  0  0  0  0  0  0  0  0  0
   18.6539  -24.3646    0.0000 C    0  0  0  0  0  0  0  0  0  0  0  0
   18.6539  -25.6946    0.0000 C    0  0  0  0  0  0  0  0  0  0  0  0
   19.8520  -20.5990    0.0000 C    0  0  0  0  0  0  0  0  0  0  0  0
   19.8520  -21.9290    0.0000 C    0  0  0  0  0  0  0  0  0  0  0  0
   18.7001  -19.9340    0.0000 C    0  0  0  0  0  0  0  0  0  0  0  0
   18.7001  -22.5940    0.0000 C    0  0  0  0  0  0  0  0  0  0  0  0
   17.5483  -20.5990    0.0000 C    0  0  0  0  0  0  0  0  0  0  0  0
   17.5483  -21.9290    0.0000 C    0  0  0  0  0  0  0  0  0  0  0  0
   16.6311  -18.9165    0.0000 C    0  0  0  0  0  0  0  0  0  0  0  0
   16.6311  -20.2465    0.0000 C    0  0  0  0  0  0  0  0  0  0  0  0
   15.4792  -18.2515    0.0000 C    0  0  0  0  0  0  0  0  0  0  0  0
   15.4792  -20.9115    0.0000 C    0  0  0  0  0  0  0  0  0  0  0  0
   14.3274  -18.9165    0.0000 C    0  0  0  0  0  0  0  0  0  0  0  0
   14.3274  -20.2465    0.0000 C    0  0  0  0  0  0  0  0  0  0  0  0
   14.0051  -24.9976    0.0000 Rh   0  0  0  0  0  0  0  0  0  0  0  0
   16.0241  -23.2990    0.0000 P    0  0  0  0  0  0  0  0  0  0  0  0
   12.3546  -26.3436    0.0000 P    0  0  0  0  0  0  0  0  0  0  0  0
   15.2229  -26.1033    0.0000 C    0  0  0  0  0  0  0  0  0  0  0  0
   16.5208  -27.0327    0.0000 O    0  0  0  0  0  0  0  0  0  0  0  0
   13.1567  -23.9733    0.0000 N    0  0  0  0  0  0  0  0  0  0  0  0
   11.8454  -24.1960    0.0000 N    0  3  0  0  0  0  0  0  0  0  0  0
   10.5342  -24.4186    0.0000 N    0  5  0  0  0  0  0  0  0  0  0  0
  1  2  1  0  0  0  0
  1  3  2  0  0  0  0
  2  4  2  0  0  0  0
  3  5  1  0  0  0  0
  4  6  1  0  0  0  0
  5  6  2  0  0  0  0
  7  8  1  0  0  0  0
  7  9  2  0  0  0  0
  8 10  2  0  0  0  0
  9 11  1  0  0  0  0
 10 12  1  0  0  0  0
 11 12  2  0  0  0  0
 13 14  1  0  0  0  0
 13 15  2  0  0  0  0
 14 16  2  0  0  0  0
 15 17  1  0  0  0  0
 16 18  1  0  0  0  0
 17 18  2  0  0  0  0
 19 20  1  0  0  0  0
 19 21  2  0  0  0  0
 20 22  2  0  0  0  0
 21 23  1  0  0  0  0
 22 24  1  0  0  0  0
 23 24  2  0  0  0  0
 25 26  1  0  0  0  0
 25 27  2  0  0  0  0
 26 28  2  0  0  0  0
 27 29  1  0  0  0  0
 28 30  1  0  0  0  0
 29 30  2  0  0  0  0
 31 32  1  0  0  0  0
 31 33  2  0  0  0  0
 32 34  2  0  0  0  0
 33 35  1  0  0  0  0
 34 36  1  0  0  0  0
 35 36  2  0  0  0  0
 37 38  1  0  0  0  0
 37 39  1  0  0  0  0
 34 38  1  0  0  0  0
 30 38  1  0  0  0  0
 23 38  1  0  0  0  0
 14 39  1  0  0  0  0
  7 39  1  0  0  0  0
  3 39  1  0  0  0  0
 37 40  1  0  0  0  0
 40 41  3  0  0  0  0
 42 43  2  0  0  0  0
 43 44  2  0  0  0  0
 37 42  1  0  0  0  0
M  END
> <NMREDATA_VERSION>
1.1

> <NMREDATA_LEVEL>
0

> <NMREDATA_SOLVENT>
DCCl3

> <NMREDATA_TEMPERATURE>
300

> <NMREDATA_FORMULA>
C37H34N3OP2Rh

> <NMREDATA_SMILES>
[O]#C[Rh](P(c1ccccc1)(c1ccccc1)c1ccccc1)(P(c1ccccc1)(c1ccccc1)c1ccccc1)N=N=N

> <NMREDATA_ASSIGNMENT>
Rh37, -377.00, 37

> <NMREDATA_1D_103Rh>
-377.00, L=Rh37

$$$$

  ACD/LABS03112411032D

 44 49  0  0  0  0  0  0  0  0  2 V2000
   14.5961  -28.8354    0.0000 C    0  0  0  0  0  0  0  0  0  0  0  0
   14.5961  -30.1654    0.0000 C    0  0  0  0  0  0  0  0  0  0  0  0
   13.4442  -28.1704    0.0000 C    0  0  0  0  0  0  0  0  0  0  0  0
   13.4442  -30.8304    0.0000 C    0  0  0  0  0  0  0  0  0  0  0  0
   12.2924  -28.8354    0.0000 C    0  0  0  0  0  0  0  0  0  0  0  0
   12.2924  -30.1654    0.0000 C    0  0  0  0  0  0  0  0  0  0  0  0
   11.2791  -28.6751    0.0000 C    0  0  0  0  0  0  0  0  0  0  0  0
   11.2791  -30.0051    0.0000 C    0  0  0  0  0  0  0  0  0  0  0  0
   10.1272  -28.0101    0.0000 C    0  0  0  0  0  0  0  0  0  0  0  0
   10.1272  -30.6701    0.0000 C    0  0  0  0  0  0  0  0  0  0  0  0
    8.9754  -28.6751    0.0000 C    0  0  0  0  0  0  0  0  0  0  0  0
    8.9754  -30.0051    0.0000 C    0  0  0  0  0  0  0  0  0  0  0  0
    9.7888  -25.8709    0.0000 C    0  0  0  0  0  0  0  0  0  0  0  0
    9.7888  -27.2009    0.0000 C    0  0  0  0  0  0  0  0  0  0  0  0
    8.6369  -25.2059    0.0000 C    0  0  0  0  0  0  0  0  0  0  0  0
    8.6369  -27.8659    0.0000 C    0  0  0  0  0  0  0  0  0  0  0  0
    7.4851  -25.8709    0.0000 C    0  0  0  0  0  0  0  0  0  0  0  0
    7.4851  -27.2009    0.0000 C    0  0  0  0  0  0  0  0  0  0  0  0
   20.9576  -24.3646    0.0000 C    0  0  0  0  0  0  0  0  0  0  0  0
   20.9576  -25.6946    0.0000 C    0  0  0  0  0  0  0  0  0  0  0  0
   19.8057  -23.6996    0.0000 C    0  0  0  0  0  0  0  0  0  0  0  0
   19.8057  -26.3596    0.0000 C    0  0  0  0  0  0  0  0  0  0  0  0
   18.6539  -24.3646    0.0000 C    0  0  0  0  0  0  0  0  0  0  0  0
   18.6539  -25.6946    0.0000 C    0  0  0  0  0  0  0  0  0  0  0  0
   19.8520  -20.5990    0.0000 C    0  0  0  0  0  0  0  0  0  0  0  0
   19.8520  -21.9290    0.0000 C    0  0  0  0  0  0  0  0  0  0  0  0
   18.7001  -19.9340    0.0000 C    0  0  0  0  0  0  0  0  0  0  0  0
   18.7001  -22.5940    0.0000 C    0  0  0  0  0  0  0  0  0  0  0  0
   17.5483  -20.5990    0.0000 C    0  0  0  0  0  0  0  0  0  0  0  0
   17.5483  -21.9290    0.0000 C    0  0  0  0  0  0  0  0  0  0  0  0
   16.6311  -18.9165    0.0000 C    0  0  0  0  0  0  0  0  0  0  0  0
   16.6311  -20.2465    0.0000 C    0  0  0  0  0  0  0  0  0  0  0  0
   15.4792  -18.2515    0.0000 C    0  0  0  0  0  0  0  0  0  0  0  0
   15.4792  -20.9115    0.0000 C    0  0  0  0  0  0  0  0  0  0  0  0
   14.3274  -18.9165    0.0000 C    0  0  0  0  0  0  0  0  0  0  0  0
   14.3274  -20.2465    0.0000 C    0  0  0  0  0  0  0  0  0  0  0  0
   14.0051  -24.9976    0.0000 Rh   0  0  0  0  0  0  0  0  0  0  0  0
   16.0241  -23.2990    0.0000 P    0  0  0  0  0  0  0  0  0  0  0  0
   12.3546  -26.3436    0.0000 P    0  0  0  0  0  0  0  0  0  0  0  0
   15.2229  -26.1033    0.0000 C    0  0  0  0  0  0  0  0  0  0  0  0
   16.5208  -27.0327    0.0000 O    0  0  0  0  0  0  0  0  0  0  0  0
   13.1567  -23.9733    0.0000 N    0  0  0  0  0  0  0  0  0  0  0  0
   11.8454  -24.1960    0.0000 N    0  3  0  0  0  0  0  0  0  0  0  0
   10.5342  -24.4186    0.0000 N    0  5  0  0  0  0  0  0  0  0  0  0
  1  2  1  0  0  0  0
  1  3  2  0  0  0  0
  2  4  2  0  0  0  0
  3  5  1  0  0  0  0
  4  6  1  0  0  0  0
  5  6  2  0  0  0  0
  7  8  1  0  0  0  0
  7  9  2  0  0  0  0
  8 10  2  0  0  0  0
  9 11  1  0  0  0  0
 10 12  1  0  0  0  0
 11 12  2  0  0  0  0
 13 14  1  0  0  0  0
 13 15  2  0  0  0  0
 14 16  2  0  0  0  0
 15 17  1  0  0  0  0
 16 18  1  0  0  0  0
 17 18  2  0  0  0  0
 19 20  1  0  0  0  0
 19 21  2  0  0  0  0
 20 22  2  0  0  0  0
 21 23  1  0  0  0  0
 22 24  1  0  0  0  0
 23 24  2  0  0  0  0
 25 26  1  0  0  0  0
 25 27  2  0  0  0  0
 26 28  2  0  0  0  0
 27 29  1  0  0  0  0
 28 30  1  0  0  0  0
 29 30  2  0  0  0  0
 31 32  1  0  0  0  0
 31 33  2  0  0  0  0
 32 34  2  0  0  0  0
 33 35  1  0  0  0  0
 34 36  1  0  0  0  0
 35 36  2  0  0  0  0
 37 38  1  0  0  0  0
 37 39  1  0  0  0  0
 34 38  1  0  0  0  0
 30 38  1  0  0  0  0
 23 38  1  0  0  0  0
 14 39  1  0  0  0  0
  7 39  1  0  0  0  0
  3 39  1  0  0  0  0
 37 40  1  0  0  0  0
 40 41  3  0  0  0  0
 42 43  2  0  0  0  0
 43 44  2  0  0  0  0
 37 42  1  0  0  0  0
M  END
> <NMREDATA_VERSION>
1.1

> <NMREDATA_LEVEL>
0

> <NMREDATA_SOLVENT>
DCCl3

> <NMREDATA_TEMPERATURE>
247

> <NMREDATA_FORMULA>
C37H34N3OP2Rh

> <NMREDATA_SMILES>
[O]#C[Rh](P(c1ccccc1)(c1ccccc1)c1ccccc1)(P(c1ccccc1)(c1ccccc1)c1ccccc1)N=N=N

> <NMREDATA_ASSIGNMENT>
Rh37, -399.00, 37

> <NMREDATA_1D_103Rh>
-399.00, L=Rh37

$$$$

  ACD/LABS03112411032D

 44 49  0  0  0  0  0  0  0  0  1 V2000
   14.5961  -28.8354    0.0000 C    0  0  0  0  0  0  0  0  0  0  0  0
   14.5961  -30.1654    0.0000 C    0  0  0  0  0  0  0  0  0  0  0  0
   13.4442  -28.1704    0.0000 C    0  0  0  0  0  0  0  0  0  0  0  0
   13.4442  -30.8304    0.0000 C    0  0  0  0  0  0  0  0  0  0  0  0
   12.2924  -28.8354    0.0000 C    0  0  0  0  0  0  0  0  0  0  0  0
   12.2924  -30.1654    0.0000 C    0  0  0  0  0  0  0  0  0  0  0  0
   11.2791  -28.6751    0.0000 C    0  0  0  0  0  0  0  0  0  0  0  0
   11.2791  -30.0051    0.0000 C    0  0  0  0  0  0  0  0  0  0  0  0
   10.1272  -28.0101    0.0000 C    0  0  0  0  0  0  0  0  0  0  0  0
   10.1272  -30.6701    0.0000 C    0  0  0  0  0  0  0  0  0  0  0  0
    8.9754  -28.6751    0.0000 C    0  0  0  0  0  0  0  0  0  0  0  0
    8.9754  -30.0051    0.0000 C    0  0  0  0  0  0  0  0  0  0  0  0
    9.7888  -25.8709    0.0000 C    0  0  0  0  0  0  0  0  0  0  0  0
    9.7888  -27.2009    0.0000 C    0  0  0  0  0  0  0  0  0  0  0  0
    8.6369  -25.2059    0.0000 C    0  0  0  0  0  0  0  0  0  0  0  0
    8.6369  -27.8659    0.0000 C    0  0  0  0  0  0  0  0  0  0  0  0
    7.4851  -25.8709    0.0000 C    0  0  0  0  0  0  0  0  0  0  0  0
    7.4851  -27.2009    0.0000 C    0  0  0  0  0  0  0  0  0  0  0  0
   20.9576  -24.3646    0.0000 C    0  0  0  0  0  0  0  0  0  0  0  0
   20.9576  -25.6946    0.0000 C    0  0  0  0  0  0  0  0  0  0  0  0
   19.8057  -23.6996    0.0000 C    0  0  0  0  0  0  0  0  0  0  0  0
   19.8057  -26.3596    0.0000 C    0  0  0  0  0  0  0  0  0  0  0  0
   18.6539  -24.3646    0.0000 C    0  0  0  0  0  0  0  0  0  0  0  0
   18.6539  -25.6946    0.0000 C    0  0  0  0  0  0  0  0  0  0  0  0
   19.8520  -20.5990    0.0000 C    0  0  0  0  0  0  0  0  0  0  0  0
   19.8520  -21.9290    0.0000 C    0  0  0  0  0  0  0  0  0  0  0  0
   18.7001  -19.9340    0.0000 C    0  0  0  0  0  0  0  0  0  0  0  0
   18.7001  -22.5940    0.0000 C    0  0  0  0  0  0  0  0  0  0  0  0
   17.5483  -20.5990    0.0000 C    0  0  0  0  0  0  0  0  0  0  0  0
   17.5483  -21.9290    0.0000 C    0  0  0  0  0  0  0  0  0  0  0  0
   16.6311  -18.9165    0.0000 C    0  0  0  0  0  0  0  0  0  0  0  0
   16.6311  -20.2465    0.0000 C    0  0  0  0  0  0  0  0  0  0  0  0
   15.4792  -18.2515    0.0000 C    0  0  0  0  0  0  0  0  0  0  0  0
   15.4792  -20.9115    0.0000 C    0  0  0  0  0  0  0  0  0  0  0  0
   14.3274  -18.9165    0.0000 C    0  0  0  0  0  0  0  0  0  0  0  0
   14.3274  -20.2465    0.0000 C    0  0  0  0  0  0  0  0  0  0  0  0
   14.0051  -24.9976    0.0000 Rh   0  0  0  0  0  0  0  0  0  0  0  0
   16.0241  -23.2990    0.0000 P    0  0  0  0  0  0  0  0  0  0  0  0
   12.3546  -26.3436    0.0000 P    0  0  0  0  0  0  0  0  0  0  0  0
   15.2229  -26.1033    0.0000 C    0  0  0  0  0  0  0  0  0  0  0  0
   16.5208  -27.0327    0.0000 O    0  0  0  0  0  0  0  0  0  0  0  0
   13.1567  -23.9733    0.0000 N    0  0  0  0  0  0  0  0  0  0  0  0
   11.8454  -24.1960    0.0000 C    0  0  0  0  0  0  0  0  0  0  0  0
   10.5342  -24.4186    0.0000 O    0  0  0  0  0  0  0  0  0  0  0  0
  1  2  1  0  0  0  0
  1  3  2  0  0  0  0
  2  4  2  0  0  0  0
  3  5  1  0  0  0  0
  4  6  1  0  0  0  0
  5  6  2  0  0  0  0
  7  8  1  0  0  0  0
  7  9  2  0  0  0  0
  8 10  2  0  0  0  0
  9 11  1  0  0  0  0
 10 12  1  0  0  0  0
 11 12  2  0  0  0  0
 13 14  1  0  0  0  0
 13 15  2  0  0  0  0
 14 16  2  0  0  0  0
 15 17  1  0  0  0  0
 16 18  1  0  0  0  0
 17 18  2  0  0  0  0
 19 20  1  0  0  0  0
 19 21  2  0  0  0  0
 20 22  2  0  0  0  0
 21 23  1  0  0  0  0
 22 24  1  0  0  0  0
 23 24  2  0  0  0  0
 25 26  1  0  0  0  0
 25 27  2  0  0  0  0
 26 28  2  0  0  0  0
 27 29  1  0  0  0  0
 28 30  1  0  0  0  0
 29 30  2  0  0  0  0
 31 32  1  0  0  0  0
 31 33  2  0  0  0  0
 32 34  2  0  0  0  0
 33 35  1  0  0  0  0
 34 36  1  0  0  0  0
 35 36  2  0  0  0  0
 37 38  1  0  0  0  0
 37 39  1  0  0  0  0
 34 38  1  0  0  0  0
 30 38  1  0  0  0  0
 23 38  1  0  0  0  0
 14 39  1  0  0  0  0
  7 39  1  0  0  0  0
  3 39  1  0  0  0  0
 37 40  1  0  0  0  0
 40 41  3  0  0  0  0
 42 43  2  0  0  0  0
 43 44  2  0  0  0  0
 37 42  1  0  0  0  0
M  END
> <NMREDATA_VERSION>
1.1

> <NMREDATA_LEVEL>
0

> <NMREDATA_SOLVENT>
DCCl3

> <NMREDATA_TEMPERATURE>
300

> <NMREDATA_FORMULA>
C38H32NO2P2Rh

> <NMREDATA_SMILES>
[O]#C[Rh](P(c1ccccc1)(c1ccccc1)c1ccccc1)(P(c1ccccc1)(c1ccccc1)c1ccccc1)N=C=O

> <NMREDATA_ASSIGNMENT>
Rh37, -434.00, 37

> <NMREDATA_1D_103Rh>
-434.00, L=Rh37

$$$$

  ACD/LABS03112411032D

 44 49  0  0  0  0  0  0  0  0  1 V2000
   14.5961  -28.8354    0.0000 C    0  0  0  0  0  0  0  0  0  0  0  0
   14.5961  -30.1654    0.0000 C    0  0  0  0  0  0  0  0  0  0  0  0
   13.4442  -28.1704    0.0000 C    0  0  0  0  0  0  0  0  0  0  0  0
   13.4442  -30.8304    0.0000 C    0  0  0  0  0  0  0  0  0  0  0  0
   12.2924  -28.8354    0.0000 C    0  0  0  0  0  0  0  0  0  0  0  0
   12.2924  -30.1654    0.0000 C    0  0  0  0  0  0  0  0  0  0  0  0
   11.2791  -28.6751    0.0000 C    0  0  0  0  0  0  0  0  0  0  0  0
   11.2791  -30.0051    0.0000 C    0  0  0  0  0  0  0  0  0  0  0  0
   10.1272  -28.0101    0.0000 C    0  0  0  0  0  0  0  0  0  0  0  0
   10.1272  -30.6701    0.0000 C    0  0  0  0  0  0  0  0  0  0  0  0
    8.9754  -28.6751    0.0000 C    0  0  0  0  0  0  0  0  0  0  0  0
    8.9754  -30.0051    0.0000 C    0  0  0  0  0  0  0  0  0  0  0  0
    9.7888  -25.8709    0.0000 C    0  0  0  0  0  0  0  0  0  0  0  0
    9.7888  -27.2009    0.0000 C    0  0  0  0  0  0  0  0  0  0  0  0
    8.6369  -25.2059    0.0000 C    0  0  0  0  0  0  0  0  0  0  0  0
    8.6369  -27.8659    0.0000 C    0  0  0  0  0  0  0  0  0  0  0  0
    7.4851  -25.8709    0.0000 C    0  0  0  0  0  0  0  0  0  0  0  0
    7.4851  -27.2009    0.0000 C    0  0  0  0  0  0  0  0  0  0  0  0
   20.9576  -24.3646    0.0000 C    0  0  0  0  0  0  0  0  0  0  0  0
   20.9576  -25.6946    0.0000 C    0  0  0  0  0  0  0  0  0  0  0  0
   19.8057  -23.6996    0.0000 C    0  0  0  0  0  0  0  0  0  0  0  0
   19.8057  -26.3596    0.0000 C    0  0  0  0  0  0  0  0  0  0  0  0
   18.6539  -24.3646    0.0000 C    0  0  0  0  0  0  0  0  0  0  0  0
   18.6539  -25.6946    0.0000 C    0  0  0  0  0  0  0  0  0  0  0  0
   19.8520  -20.5990    0.0000 C    0  0  0  0  0  0  0  0  0  0  0  0
   19.8520  -21.9290    0.0000 C    0  0  0  0  0  0  0  0  0  0  0  0
   18.7001  -19.9340    0.0000 C    0  0  0  0  0  0  0  0  0  0  0  0
   18.7001  -22.5940    0.0000 C    0  0  0  0  0  0  0  0  0  0  0  0
   17.5483  -20.5990    0.0000 C    0  0  0  0  0  0  0  0  0  0  0  0
   17.5483  -21.9290    0.0000 C    0  0  0  0  0  0  0  0  0  0  0  0
   16.6311  -18.9165    0.0000 C    0  0  0  0  0  0  0  0  0  0  0  0
   16.6311  -20.2465    0.0000 C    0  0  0  0  0  0  0  0  0  0  0  0
   15.4792  -18.2515    0.0000 C    0  0  0  0  0  0  0  0  0  0  0  0
   15.4792  -20.9115    0.0000 C    0  0  0  0  0  0  0  0  0  0  0  0
   14.3274  -18.9165    0.0000 C    0  0  0  0  0  0  0  0  0  0  0  0
   14.3274  -20.2465    0.0000 C    0  0  0  0  0  0  0  0  0  0  0  0
   14.0051  -24.9976    0.0000 Rh   0  0  0  0  0  0  0  0  0  0  0  0
   16.0241  -23.2990    0.0000 P    0  0  0  0  0  0  0  0  0  0  0  0
   12.3546  -26.3436    0.0000 P    0  0  0  0  0  0  0  0  0  0  0  0
   15.2229  -26.1033    0.0000 C    0  0  0  0  0  0  0  0  0  0  0  0
   16.5208  -27.0327    0.0000 O    0  0  0  0  0  0  0  0  0  0  0  0
   13.1567  -23.9733    0.0000 N    0  0  0  0  0  0  0  0  0  0  0  0
   11.8454  -24.1960    0.0000 C    0  0  0  0  0  0  0  0  0  0  0  0
   10.5342  -24.4186    0.0000 O    0  0  0  0  0  0  0  0  0  0  0  0
  1  2  1  0  0  0  0
  1  3  2  0  0  0  0
  2  4  2  0  0  0  0
  3  5  1  0  0  0  0
  4  6  1  0  0  0  0
  5  6  2  0  0  0  0
  7  8  1  0  0  0  0
  7  9  2  0  0  0  0
  8 10  2  0  0  0  0
  9 11  1  0  0  0  0
 10 12  1  0  0  0  0
 11 12  2  0  0  0  0
 13 14  1  0  0  0  0
 13 15  2  0  0  0  0
 14 16  2  0  0  0  0
 15 17  1  0  0  0  0
 16 18  1  0  0  0  0
 17 18  2  0  0  0  0
 19 20  1  0  0  0  0
 19 21  2  0  0  0  0
 20 22  2  0  0  0  0
 21 23  1  0  0  0  0
 22 24  1  0  0  0  0
 23 24  2  0  0  0  0
 25 26  1  0  0  0  0
 25 27  2  0  0  0  0
 26 28  2  0  0  0  0
 27 29  1  0  0  0  0
 28 30  1  0  0  0  0
 29 30  2  0  0  0  0
 31 32  1  0  0  0  0
 31 33  2  0  0  0  0
 32 34  2  0  0  0  0
 33 35  1  0  0  0  0
 34 36  1  0  0  0  0
 35 36  2  0  0  0  0
 37 38  1  0  0  0  0
 37 39  1  0  0  0  0
 34 38  1  0  0  0  0
 30 38  1  0  0  0  0
 23 38  1  0  0  0  0
 14 39  1  0  0  0  0
  7 39  1  0  0  0  0
  3 39  1  0  0  0  0
 37 40  1  0  0  0  0
 40 41  3  0  0  0  0
 42 43  2  0  0  0  0
 43 44  2  0  0  0  0
 37 42  1  0  0  0  0
M  END
> <NMREDATA_VERSION>
1.1

> <NMREDATA_LEVEL>
0

> <NMREDATA_SOLVENT>
DCCl3

> <NMREDATA_TEMPERATURE>
247

> <NMREDATA_FORMULA>
C38H32NO2P2Rh

> <NMREDATA_SMILES>
[O]#C[Rh](P(c1ccccc1)(c1ccccc1)c1ccccc1)(P(c1ccccc1)(c1ccccc1)c1ccccc1)N=C=O

> <NMREDATA_ASSIGNMENT>
Rh37, -457.00, 37

> <NMREDATA_1D_103Rh>
-457.00, L=Rh37

$$$$

  ACD/LABS03112411042D

 46 51  0  0  0  0  0  0  0  0  1 V2000
   14.5961  -28.8354    0.0000 C    0  0  0  0  0  0  0  0  0  0  0  0
   14.5961  -30.1654    0.0000 C    0  0  0  0  0  0  0  0  0  0  0  0
   13.4442  -28.1704    0.0000 C    0  0  0  0  0  0  0  0  0  0  0  0
   13.4442  -30.8304    0.0000 C    0  0  0  0  0  0  0  0  0  0  0  0
   12.2924  -28.8354    0.0000 C    0  0  0  0  0  0  0  0  0  0  0  0
   12.2924  -30.1654    0.0000 C    0  0  0  0  0  0  0  0  0  0  0  0
   11.2791  -28.6751    0.0000 C    0  0  0  0  0  0  0  0  0  0  0  0
   11.2791  -30.0051    0.0000 C    0  0  0  0  0  0  0  0  0  0  0  0
   10.1272  -28.0101    0.0000 C    0  0  0  0  0  0  0  0  0  0  0  0
   10.1272  -30.6701    0.0000 C    0  0  0  0  0  0  0  0  0  0  0  0
    8.9754  -28.6751    0.0000 C    0  0  0  0  0  0  0  0  0  0  0  0
    8.9754  -30.0051    0.0000 C    0  0  0  0  0  0  0  0  0  0  0  0
    9.7888  -25.8709    0.0000 C    0  0  0  0  0  0  0  0  0  0  0  0
    9.7888  -27.2009    0.0000 C    0  0  0  0  0  0  0  0  0  0  0  0
    8.6369  -25.2059    0.0000 C    0  0  0  0  0  0  0  0  0  0  0  0
    8.6369  -27.8659    0.0000 C    0  0  0  0  0  0  0  0  0  0  0  0
    7.4851  -25.8709    0.0000 C    0  0  0  0  0  0  0  0  0  0  0  0
    7.4851  -27.2009    0.0000 C    0  0  0  0  0  0  0  0  0  0  0  0
   20.9576  -24.3646    0.0000 C    0  0  0  0  0  0  0  0  0  0  0  0
   20.9576  -25.6946    0.0000 C    0  0  0  0  0  0  0  0  0  0  0  0
   19.8057  -23.6996    0.0000 C    0  0  0  0  0  0  0  0  0  0  0  0
   19.8057  -26.3596    0.0000 C    0  0  0  0  0  0  0  0  0  0  0  0
   18.6539  -24.3646    0.0000 C    0  0  0  0  0  0  0  0  0  0  0  0
   18.6539  -25.6946    0.0000 C    0  0  0  0  0  0  0  0  0  0  0  0
   19.8520  -20.5990    0.0000 C    0  0  0  0  0  0  0  0  0  0  0  0
   19.8520  -21.9290    0.0000 C    0  0  0  0  0  0  0  0  0  0  0  0
   18.7001  -19.9340    0.0000 C    0  0  0  0  0  0  0  0  0  0  0  0
   18.7001  -22.5940    0.0000 C    0  0  0  0  0  0  0  0  0  0  0  0
   17.5483  -20.5990    0.0000 C    0  0  0  0  0  0  0  0  0  0  0  0
   17.5483  -21.9290    0.0000 C    0  0  0  0  0  0  0  0  0  0  0  0
   16.6311  -18.9165    0.0000 C    0  0  0  0  0  0  0  0  0  0  0  0
   16.6311  -20.2465    0.0000 C    0  0  0  0  0  0  0  0  0  0  0  0
   15.4792  -18.2515    0.0000 C    0  0  0  0  0  0  0  0  0  0  0  0
   15.4792  -20.9115    0.0000 C    0  0  0  0  0  0  0  0  0  0  0  0
   14.3274  -18.9165    0.0000 C    0  0  0  0  0  0  0  0  0  0  0  0
   14.3274  -20.2465    0.0000 C    0  0  0  0  0  0  0  0  0  0  0  0
   14.0051  -24.9976    0.0000 Rh   0  0  0  0  0  0  0  0  0  0  0  0
   16.0241  -23.2990    0.0000 P    0  0  0  0  0  0  0  0  0  0  0  0
   12.3546  -26.3436    0.0000 P    0  0  0  0  0  0  0  0  0  0  0  0
   15.2229  -26.1033    0.0000 C    0  0  0  0  0  0  0  0  0  0  0  0
   16.5208  -27.0327    0.0000 O    0  0  0  0  0  0  0  0  0  0  0  0
   12.4828  -23.9400    0.0000 N    0  0  0  0  0  0  0  0  0  0  0  0
   12.5938  -22.6147    0.0000 C    0  0  0  0  0  0  0  0  0  0  0  0
   12.7049  -21.2893    0.0000 N    0  0  0  0  0  0  0  0  0  0  0  0
   11.2795  -24.5065    0.0000 C    0  0  0  0  0  0  0  0  0  0  0  0
   10.0761  -25.0730    0.0000 N    0  0  0  0  0  0  0  0  0  0  0  0
  1  2  1  0  0  0  0
  1  3  2  0  0  0  0
  2  4  2  0  0  0  0
  3  5  1  0  0  0  0
  4  6  1  0  0  0  0
  5  6  2  0  0  0  0
  7  8  1  0  0  0  0
  7  9  2  0  0  0  0
  8 10  2  0  0  0  0
  9 11  1  0  0  0  0
 10 12  1  0  0  0  0
 11 12  2  0  0  0  0
 13 14  1  0  0  0  0
 13 15  2  0  0  0  0
 14 16  2  0  0  0  0
 15 17  1  0  0  0  0
 16 18  1  0  0  0  0
 17 18  2  0  0  0  0
 19 20  1  0  0  0  0
 19 21  2  0  0  0  0
 20 22  2  0  0  0  0
 21 23  1  0  0  0  0
 22 24  1  0  0  0  0
 23 24  2  0  0  0  0
 25 26  1  0  0  0  0
 25 27  2  0  0  0  0
 26 28  2  0  0  0  0
 27 29  1  0  0  0  0
 28 30  1  0  0  0  0
 29 30  2  0  0  0  0
 31 32  1  0  0  0  0
 31 33  2  0  0  0  0
 32 34  2  0  0  0  0
 33 35  1  0  0  0  0
 34 36  1  0  0  0  0
 35 36  2  0  0  0  0
 37 38  1  0  0  0  0
 37 39  1  0  0  0  0
 34 38  1  0  0  0  0
 30 38  1  0  0  0  0
 23 38  1  0  0  0  0
 14 39  1  0  0  0  0
  7 39  1  0  0  0  0
  3 39  1  0  0  0  0
 37 40  1  0  0  0  0
 40 41  3  0  0  0  0
 37 42  1  0  0  0  0
 43 44  3  0  0  0  0
 42 43  1  0  0  0  0
 45 46  3  0  0  0  0
 42 45  1  0  0  0  0
M  END
> <NMREDATA_VERSION>
1.1

> <NMREDATA_LEVEL>
0

> <NMREDATA_SOLVENT>
DCCl3

> <NMREDATA_TEMPERATURE>
300

> <NMREDATA_FORMULA>
C39H32N3OP2Rh

> <NMREDATA_SMILES>
[O]#C[Rh](P(c1ccccc1)(c1ccccc1)c1ccccc1)(P(c1ccccc1)(c1ccccc1)c1ccccc1)N(C#N)C#N

> <NMREDATA_ASSIGNMENT>
Rh37, -468.00, 37

> <NMREDATA_1D_103Rh>
-468.00, L=Rh37

$$$$

  ACD/LABS03112411042D

 46 51  0  0  0  0  0  0  0  0  1 V2000
   14.5961  -28.8354    0.0000 C    0  0  0  0  0  0  0  0  0  0  0  0
   14.5961  -30.1654    0.0000 C    0  0  0  0  0  0  0  0  0  0  0  0
   13.4442  -28.1704    0.0000 C    0  0  0  0  0  0  0  0  0  0  0  0
   13.4442  -30.8304    0.0000 C    0  0  0  0  0  0  0  0  0  0  0  0
   12.2924  -28.8354    0.0000 C    0  0  0  0  0  0  0  0  0  0  0  0
   12.2924  -30.1654    0.0000 C    0  0  0  0  0  0  0  0  0  0  0  0
   11.2791  -28.6751    0.0000 C    0  0  0  0  0  0  0  0  0  0  0  0
   11.2791  -30.0051    0.0000 C    0  0  0  0  0  0  0  0  0  0  0  0
   10.1272  -28.0101    0.0000 C    0  0  0  0  0  0  0  0  0  0  0  0
   10.1272  -30.6701    0.0000 C    0  0  0  0  0  0  0  0  0  0  0  0
    8.9754  -28.6751    0.0000 C    0  0  0  0  0  0  0  0  0  0  0  0
    8.9754  -30.0051    0.0000 C    0  0  0  0  0  0  0  0  0  0  0  0
    9.7888  -25.8709    0.0000 C    0  0  0  0  0  0  0  0  0  0  0  0
    9.7888  -27.2009    0.0000 C    0  0  0  0  0  0  0  0  0  0  0  0
    8.6369  -25.2059    0.0000 C    0  0  0  0  0  0  0  0  0  0  0  0
    8.6369  -27.8659    0.0000 C    0  0  0  0  0  0  0  0  0  0  0  0
    7.4851  -25.8709    0.0000 C    0  0  0  0  0  0  0  0  0  0  0  0
    7.4851  -27.2009    0.0000 C    0  0  0  0  0  0  0  0  0  0  0  0
   20.9576  -24.3646    0.0000 C    0  0  0  0  0  0  0  0  0  0  0  0
   20.9576  -25.6946    0.0000 C    0  0  0  0  0  0  0  0  0  0  0  0
   19.8057  -23.6996    0.0000 C    0  0  0  0  0  0  0  0  0  0  0  0
   19.8057  -26.3596    0.0000 C    0  0  0  0  0  0  0  0  0  0  0  0
   18.6539  -24.3646    0.0000 C    0  0  0  0  0  0  0  0  0  0  0  0
   18.6539  -25.6946    0.0000 C    0  0  0  0  0  0  0  0  0  0  0  0
   19.8520  -20.5990    0.0000 C    0  0  0  0  0  0  0  0  0  0  0  0
   19.8520  -21.9290    0.0000 C    0  0  0  0  0  0  0  0  0  0  0  0
   18.7001  -19.9340    0.0000 C    0  0  0  0  0  0  0  0  0  0  0  0
   18.7001  -22.5940    0.0000 C    0  0  0  0  0  0  0  0  0  0  0  0
   17.5483  -20.5990    0.0000 C    0  0  0  0  0  0  0  0  0  0  0  0
   17.5483  -21.9290    0.0000 C    0  0  0  0  0  0  0  0  0  0  0  0
   16.6311  -18.9165    0.0000 C    0  0  0  0  0  0  0  0  0  0  0  0
   16.6311  -20.2465    0.0000 C    0  0  0  0  0  0  0  0  0  0  0  0
   15.4792  -18.2515    0.0000 C    0  0  0  0  0  0  0  0  0  0  0  0
   15.4792  -20.9115    0.0000 C    0  0  0  0  0  0  0  0  0  0  0  0
   14.3274  -18.9165    0.0000 C    0  0  0  0  0  0  0  0  0  0  0  0
   14.3274  -20.2465    0.0000 C    0  0  0  0  0  0  0  0  0  0  0  0
   14.0051  -24.9976    0.0000 Rh   0  0  0  0  0  0  0  0  0  0  0  0
   16.0241  -23.2990    0.0000 P    0  0  0  0  0  0  0  0  0  0  0  0
   12.3546  -26.3436    0.0000 P    0  0  0  0  0  0  0  0  0  0  0  0
   15.2229  -26.1033    0.0000 C    0  0  0  0  0  0  0  0  0  0  0  0
   16.5208  -27.0327    0.0000 O    0  0  0  0  0  0  0  0  0  0  0  0
   12.4828  -23.9400    0.0000 N    0  0  0  0  0  0  0  0  0  0  0  0
   12.5938  -22.6147    0.0000 C    0  0  0  0  0  0  0  0  0  0  0  0
   12.7049  -21.2893    0.0000 N    0  0  0  0  0  0  0  0  0  0  0  0
   11.2795  -24.5065    0.0000 C    0  0  0  0  0  0  0  0  0  0  0  0
   10.0761  -25.0730    0.0000 N    0  0  0  0  0  0  0  0  0  0  0  0
  1  2  1  0  0  0  0
  1  3  2  0  0  0  0
  2  4  2  0  0  0  0
  3  5  1  0  0  0  0
  4  6  1  0  0  0  0
  5  6  2  0  0  0  0
  7  8  1  0  0  0  0
  7  9  2  0  0  0  0
  8 10  2  0  0  0  0
  9 11  1  0  0  0  0
 10 12  1  0  0  0  0
 11 12  2  0  0  0  0
 13 14  1  0  0  0  0
 13 15  2  0  0  0  0
 14 16  2  0  0  0  0
 15 17  1  0  0  0  0
 16 18  1  0  0  0  0
 17 18  2  0  0  0  0
 19 20  1  0  0  0  0
 19 21  2  0  0  0  0
 20 22  2  0  0  0  0
 21 23  1  0  0  0  0
 22 24  1  0  0  0  0
 23 24  2  0  0  0  0
 25 26  1  0  0  0  0
 25 27  2  0  0  0  0
 26 28  2  0  0  0  0
 27 29  1  0  0  0  0
 28 30  1  0  0  0  0
 29 30  2  0  0  0  0
 31 32  1  0  0  0  0
 31 33  2  0  0  0  0
 32 34  2  0  0  0  0
 33 35  1  0  0  0  0
 34 36  1  0  0  0  0
 35 36  2  0  0  0  0
 37 38  1  0  0  0  0
 37 39  1  0  0  0  0
 34 38  1  0  0  0  0
 30 38  1  0  0  0  0
 23 38  1  0  0  0  0
 14 39  1  0  0  0  0
  7 39  1  0  0  0  0
  3 39  1  0  0  0  0
 37 40  1  0  0  0  0
 40 41  3  0  0  0  0
 37 42  1  0  0  0  0
 43 44  3  0  0  0  0
 42 43  1  0  0  0  0
 45 46  3  0  0  0  0
 42 45  1  0  0  0  0
M  END
> <NMREDATA_VERSION>
1.1

> <NMREDATA_LEVEL>
0

> <NMREDATA_SOLVENT>
DCCl3

> <NMREDATA_TEMPERATURE>
247

> <NMREDATA_FORMULA>
C39H32N3OP2Rh

> <NMREDATA_SMILES>
[O]#C[Rh](P(c1ccccc1)(c1ccccc1)c1ccccc1)(P(c1ccccc1)(c1ccccc1)c1ccccc1)N(C#N)C#N

> <NMREDATA_ASSIGNMENT>
Rh37, -495.00, 37

> <NMREDATA_1D_103Rh>
-495.00, L=Rh37

$$$$

  ACD/LABS03112411052D

 62 70  0  0  0  0  0  0  0  0  1 V2000
   12.5931  -18.6921    0.0000 C    0  0  0  0  0  0  0  0  0  0  0  0
   12.5931  -20.0221    0.0000 C    0  0  0  0  0  0  0  0  0  0  0  0
   11.4411  -18.0271    0.0000 C    0  0  0  0  0  0  0  0  0  0  0  0
   11.4411  -20.6871    0.0000 C    0  0  0  0  0  0  0  0  0  0  0  0
   10.2894  -18.6921    0.0000 C    0  0  0  0  0  0  0  0  0  0  0  0
   10.2894  -20.0221    0.0000 C    0  0  0  0  0  0  0  0  0  0  0  0
    9.7247  -18.7242    0.0000 C    0  0  0  0  0  0  0  0  0  0  0  0
    9.7247  -20.0542    0.0000 C    0  0  0  0  0  0  0  0  0  0  0  0
    8.5728  -18.0592    0.0000 C    0  0  0  0  0  0  0  0  0  0  0  0
    8.5728  -20.7192    0.0000 C    0  0  0  0  0  0  0  0  0  0  0  0
    7.4211  -18.7242    0.0000 C    0  0  0  0  0  0  0  0  0  0  0  0
    7.4211  -20.0542    0.0000 C    0  0  0  0  0  0  0  0  0  0  0  0
    6.8724  -21.2399    0.0000 C    0  0  0  0  0  0  0  0  0  0  0  0
    6.8724  -22.5699    0.0000 C    0  0  0  0  0  0  0  0  0  0  0  0
    5.7205  -20.5749    0.0000 C    0  0  0  0  0  0  0  0  0  0  0  0
    5.7205  -23.2349    0.0000 C    0  0  0  0  0  0  0  0  0  0  0  0
    4.5688  -21.2399    0.0000 C    0  0  0  0  0  0  0  0  0  0  0  0
    4.5688  -22.5699    0.0000 C    0  0  0  0  0  0  0  0  0  0  0  0
   14.5961  -28.8354    0.0000 C    0  0  0  0  0  0  0  0  0  0  0  0
   14.5961  -30.1654    0.0000 C    0  0  0  0  0  0  0  0  0  0  0  0
   13.4442  -28.1704    0.0000 C    0  0  0  0  0  0  0  0  0  0  0  0
   13.4442  -30.8304    0.0000 C    0  0  0  0  0  0  0  0  0  0  0  0
   12.2924  -28.8354    0.0000 C    0  0  0  0  0  0  0  0  0  0  0  0
   12.2924  -30.1654    0.0000 C    0  0  0  0  0  0  0  0  0  0  0  0
   11.2791  -28.6751    0.0000 C    0  0  0  0  0  0  0  0  0  0  0  0
   11.2791  -30.0051    0.0000 C    0  0  0  0  0  0  0  0  0  0  0  0
   10.1272  -28.0101    0.0000 C    0  0  0  0  0  0  0  0  0  0  0  0
   10.1272  -30.6701    0.0000 C    0  0  0  0  0  0  0  0  0  0  0  0
    8.9754  -28.6751    0.0000 C    0  0  0  0  0  0  0  0  0  0  0  0
    8.9754  -30.0051    0.0000 C    0  0  0  0  0  0  0  0  0  0  0  0
    9.7888  -25.8709    0.0000 C    0  0  0  0  0  0  0  0  0  0  0  0
    9.7888  -27.2009    0.0000 C    0  0  0  0  0  0  0  0  0  0  0  0
    8.6369  -25.2059    0.0000 C    0  0  0  0  0  0  0  0  0  0  0  0
    8.6369  -27.8659    0.0000 C    0  0  0  0  0  0  0  0  0  0  0  0
    7.4851  -25.8709    0.0000 C    0  0  0  0  0  0  0  0  0  0  0  0
    7.4851  -27.2009    0.0000 C    0  0  0  0  0  0  0  0  0  0  0  0
   20.9576  -24.3646    0.0000 C    0  0  0  0  0  0  0  0  0  0  0  0
   20.9576  -25.6946    0.0000 C    0  0  0  0  0  0  0  0  0  0  0  0
   19.8057  -23.6996    0.0000 C    0  0  0  0  0  0  0  0  0  0  0  0
   19.8057  -26.3596    0.0000 C    0  0  0  0  0  0  0  0  0  0  0  0
   18.6539  -24.3646    0.0000 C    0  0  0  0  0  0  0  0  0  0  0  0
   18.6539  -25.6946    0.0000 C    0  0  0  0  0  0  0  0  0  0  0  0
   19.8520  -20.5990    0.0000 C    0  0  0  0  0  0  0  0  0  0  0  0
   19.8520  -21.9290    0.0000 C    0  0  0  0  0  0  0  0  0  0  0  0
   18.7001  -19.9340    0.0000 C    0  0  0  0  0  0  0  0  0  0  0  0
   18.7001  -22.5940    0.0000 C    0  0  0  0  0  0  0  0  0  0  0  0
   17.5483  -20.5990    0.0000 C    0  0  0  0  0  0  0  0  0  0  0  0
   17.5483  -21.9290    0.0000 C    0  0  0  0  0  0  0  0  0  0  0  0
   16.6311  -18.9165    0.0000 C    0  0  0  0  0  0  0  0  0  0  0  0
   16.6311  -20.2465    0.0000 C    0  0  0  0  0  0  0  0  0  0  0  0
   15.4792  -18.2515    0.0000 C    0  0  0  0  0  0  0  0  0  0  0  0
   15.4792  -20.9115    0.0000 C    0  0  0  0  0  0  0  0  0  0  0  0
   14.3274  -18.9165    0.0000 C    0  0  0  0  0  0  0  0  0  0  0  0
   14.3274  -20.2465    0.0000 C    0  0  0  0  0  0  0  0  0  0  0  0
   14.0051  -24.9976    0.0000 Rh   0  0  0  0  0  0  0  0  0  0  0  0
   16.0241  -23.2990    0.0000 P    0  0  0  0  0  0  0  0  0  0  0  0
   12.3546  -26.3436    0.0000 P    0  0  0  0  0  0  0  0  0  0  0  0
   15.2229  -26.1033    0.0000 C    0  0  0  0  0  0  0  0  0  0  0  0
   16.5208  -27.0327    0.0000 O    0  0  0  0  0  0  0  0  0  0  0  0
   13.1567  -23.9733    0.0000 N    0  0  0  0  0  0  0  0  0  0  0  0
   12.3083  -22.9491    0.0000 C    0  0  0  0  0  0  0  0  0  0  0  0
   11.4252  -21.9370    0.0000 B    0  0  0  0  0  0  0  0  0  0  0  0
  1  2  1  0  0  0  0
  1  3  2  0  0  0  0
  2  4  2  0  0  0  0
  3  5  1  0  0  0  0
  4  6  1  0  0  0  0
  5  6  2  0  0  0  0
  7  8  1  0  0  0  0
  7  9  2  0  0  0  0
  8 10  2  0  0  0  0
  9 11  1  0  0  0  0
 10 12  1  0  0  0  0
 11 12  2  0  0  0  0
 13 14  1  0  0  0  0
 13 15  2  0  0  0  0
 14 16  2  0  0  0  0
 15 17  1  0  0  0  0
 16 18  1  0  0  0  0
 17 18  2  0  0  0  0
 19 20  1  0  0  0  0
 19 21  2  0  0  0  0
 20 22  2  0  0  0  0
 21 23  1  0  0  0  0
 22 24  1  0  0  0  0
 23 24  2  0  0  0  0
 25 26  1  0  0  0  0
 25 27  2  0  0  0  0
 26 28  2  0  0  0  0
 27 29  1  0  0  0  0
 28 30  1  0  0  0  0
 29 30  2  0  0  0  0
 31 32  1  0  0  0  0
 31 33  2  0  0  0  0
 32 34  2  0  0  0  0
 33 35  1  0  0  0  0
 34 36  1  0  0  0  0
 35 36  2  0  0  0  0
 37 38  1  0  0  0  0
 37 39  2  0  0  0  0
 38 40  2  0  0  0  0
 39 41  1  0  0  0  0
 40 42  1  0  0  0  0
 41 42  2  0  0  0  0
 43 44  1  0  0  0  0
 43 45  2  0  0  0  0
 44 46  2  0  0  0  0
 45 47  1  0  0  0  0
 46 48  1  0  0  0  0
 47 48  2  0  0  0  0
 49 50  1  0  0  0  0
 49 51  2  0  0  0  0
 50 52  2  0  0  0  0
 51 53  1  0  0  0  0
 52 54  1  0  0  0  0
 53 54  2  0  0  0  0
 55 56  1  0  0  0  0
 55 57  1  0  0  0  0
 52 56  1  0  0  0  0
 48 56  1  0  0  0  0
 41 56  1  0  0  0  0
 32 57  1  0  0  0  0
 25 57  1  0  0  0  0
 21 57  1  0  0  0  0
 55 58  1  0  0  0  0
 58 59  3  0  0  0  0
 60 61  3  0  0  0  0
 55 60  1  0  0  0  0
 61 62  1  0  0  0  0
 14 62  1  0  0  0  0
  8 62  1  0  0  0  0
  4 62  1  0  0  0  0
M  END
> <NMREDATA_VERSION>
1.1

> <NMREDATA_LEVEL>
0

> <NMREDATA_SOLVENT>
DCCl3

> <NMREDATA_TEMPERATURE>
300

> <NMREDATA_FORMULA>
C56H48BNOP2Rh

> <NMREDATA_SMILES>
[O]#C[Rh](P(c1ccccc1)(c1ccccc1)c1ccccc1)(P(c1ccccc1)(c1ccccc1)c1ccccc1)N#C[B](c1ccccc1)(c1ccccc1)c1ccccc1

> <NMREDATA_ASSIGNMENT>
Rh55, -475.00, 55

> <NMREDATA_1D_103Rh>
-475.00, L=Rh55

$$$$

  ACD/LABS03112411062D

 62 70  0  0  0  0  0  0  0  0  1 V2000
   12.5931  -18.6921    0.0000 C    0  0  0  0  0  0  0  0  0  0  0  0
   12.5931  -20.0221    0.0000 C    0  0  0  0  0  0  0  0  0  0  0  0
   11.4411  -18.0271    0.0000 C    0  0  0  0  0  0  0  0  0  0  0  0
   11.4411  -20.6871    0.0000 C    0  0  0  0  0  0  0  0  0  0  0  0
   10.2894  -18.6921    0.0000 C    0  0  0  0  0  0  0  0  0  0  0  0
   10.2894  -20.0221    0.0000 C    0  0  0  0  0  0  0  0  0  0  0  0
    9.7247  -18.7242    0.0000 C    0  0  0  0  0  0  0  0  0  0  0  0
    9.7247  -20.0542    0.0000 C    0  0  0  0  0  0  0  0  0  0  0  0
    8.5728  -18.0592    0.0000 C    0  0  0  0  0  0  0  0  0  0  0  0
    8.5728  -20.7192    0.0000 C    0  0  0  0  0  0  0  0  0  0  0  0
    7.4211  -18.7242    0.0000 C    0  0  0  0  0  0  0  0  0  0  0  0
    7.4211  -20.0542    0.0000 C    0  0  0  0  0  0  0  0  0  0  0  0
    6.8724  -21.2399    0.0000 C    0  0  0  0  0  0  0  0  0  0  0  0
    6.8724  -22.5699    0.0000 C    0  0  0  0  0  0  0  0  0  0  0  0
    5.7205  -20.5749    0.0000 C    0  0  0  0  0  0  0  0  0  0  0  0
    5.7205  -23.2349    0.0000 C    0  0  0  0  0  0  0  0  0  0  0  0
    4.5688  -21.2399    0.0000 C    0  0  0  0  0  0  0  0  0  0  0  0
    4.5688  -22.5699    0.0000 C    0  0  0  0  0  0  0  0  0  0  0  0
   14.5961  -28.8354    0.0000 C    0  0  0  0  0  0  0  0  0  0  0  0
   14.5961  -30.1654    0.0000 C    0  0  0  0  0  0  0  0  0  0  0  0
   13.4442  -28.1704    0.0000 C    0  0  0  0  0  0  0  0  0  0  0  0
   13.4442  -30.8304    0.0000 C    0  0  0  0  0  0  0  0  0  0  0  0
   12.2924  -28.8354    0.0000 C    0  0  0  0  0  0  0  0  0  0  0  0
   12.2924  -30.1654    0.0000 C    0  0  0  0  0  0  0  0  0  0  0  0
   11.2791  -28.6751    0.0000 C    0  0  0  0  0  0  0  0  0  0  0  0
   11.2791  -30.0051    0.0000 C    0  0  0  0  0  0  0  0  0  0  0  0
   10.1272  -28.0101    0.0000 C    0  0  0  0  0  0  0  0  0  0  0  0
   10.1272  -30.6701    0.0000 C    0  0  0  0  0  0  0  0  0  0  0  0
    8.9754  -28.6751    0.0000 C    0  0  0  0  0  0  0  0  0  0  0  0
    8.9754  -30.0051    0.0000 C    0  0  0  0  0  0  0  0  0  0  0  0
    9.7888  -25.8709    0.0000 C    0  0  0  0  0  0  0  0  0  0  0  0
    9.7888  -27.2009    0.0000 C    0  0  0  0  0  0  0  0  0  0  0  0
    8.6369  -25.2059    0.0000 C    0  0  0  0  0  0  0  0  0  0  0  0
    8.6369  -27.8659    0.0000 C    0  0  0  0  0  0  0  0  0  0  0  0
    7.4851  -25.8709    0.0000 C    0  0  0  0  0  0  0  0  0  0  0  0
    7.4851  -27.2009    0.0000 C    0  0  0  0  0  0  0  0  0  0  0  0
   20.9576  -24.3646    0.0000 C    0  0  0  0  0  0  0  0  0  0  0  0
   20.9576  -25.6946    0.0000 C    0  0  0  0  0  0  0  0  0  0  0  0
   19.8057  -23.6996    0.0000 C    0  0  0  0  0  0  0  0  0  0  0  0
   19.8057  -26.3596    0.0000 C    0  0  0  0  0  0  0  0  0  0  0  0
   18.6539  -24.3646    0.0000 C    0  0  0  0  0  0  0  0  0  0  0  0
   18.6539  -25.6946    0.0000 C    0  0  0  0  0  0  0  0  0  0  0  0
   19.8520  -20.5990    0.0000 C    0  0  0  0  0  0  0  0  0  0  0  0
   19.8520  -21.9290    0.0000 C    0  0  0  0  0  0  0  0  0  0  0  0
   18.7001  -19.9340    0.0000 C    0  0  0  0  0  0  0  0  0  0  0  0
   18.7001  -22.5940    0.0000 C    0  0  0  0  0  0  0  0  0  0  0  0
   17.5483  -20.5990    0.0000 C    0  0  0  0  0  0  0  0  0  0  0  0
   17.5483  -21.9290    0.0000 C    0  0  0  0  0  0  0  0  0  0  0  0
   16.6311  -18.9165    0.0000 C    0  0  0  0  0  0  0  0  0  0  0  0
   16.6311  -20.2465    0.0000 C    0  0  0  0  0  0  0  0  0  0  0  0
   15.4792  -18.2515    0.0000 C    0  0  0  0  0  0  0  0  0  0  0  0
   15.4792  -20.9115    0.0000 C    0  0  0  0  0  0  0  0  0  0  0  0
   14.3274  -18.9165    0.0000 C    0  0  0  0  0  0  0  0  0  0  0  0
   14.3274  -20.2465    0.0000 C    0  0  0  0  0  0  0  0  0  0  0  0
   14.0051  -24.9976    0.0000 Rh   0  0  0  0  0  0  0  0  0  0  0  0
   16.0241  -23.2990    0.0000 P    0  0  0  0  0  0  0  0  0  0  0  0
   12.3546  -26.3436    0.0000 P    0  0  0  0  0  0  0  0  0  0  0  0
   15.2229  -26.1033    0.0000 C    0  0  0  0  0  0  0  0  0  0  0  0
   16.5208  -27.0327    0.0000 O    0  0  0  0  0  0  0  0  0  0  0  0
   13.1567  -23.9733    0.0000 N    0  0  0  0  0  0  0  0  0  0  0  0
   12.3083  -22.9491    0.0000 C    0  0  0  0  0  0  0  0  0  0  0  0
   11.4252  -21.9370    0.0000 B    0  0  0  0  0  0  0  0  0  0  0  0
  1  2  1  0  0  0  0
  1  3  2  0  0  0  0
  2  4  2  0  0  0  0
  3  5  1  0  0  0  0
  4  6  1  0  0  0  0
  5  6  2  0  0  0  0
  7  8  1  0  0  0  0
  7  9  2  0  0  0  0
  8 10  2  0  0  0  0
  9 11  1  0  0  0  0
 10 12  1  0  0  0  0
 11 12  2  0  0  0  0
 13 14  1  0  0  0  0
 13 15  2  0  0  0  0
 14 16  2  0  0  0  0
 15 17  1  0  0  0  0
 16 18  1  0  0  0  0
 17 18  2  0  0  0  0
 19 20  1  0  0  0  0
 19 21  2  0  0  0  0
 20 22  2  0  0  0  0
 21 23  1  0  0  0  0
 22 24  1  0  0  0  0
 23 24  2  0  0  0  0
 25 26  1  0  0  0  0
 25 27  2  0  0  0  0
 26 28  2  0  0  0  0
 27 29  1  0  0  0  0
 28 30  1  0  0  0  0
 29 30  2  0  0  0  0
 31 32  1  0  0  0  0
 31 33  2  0  0  0  0
 32 34  2  0  0  0  0
 33 35  1  0  0  0  0
 34 36  1  0  0  0  0
 35 36  2  0  0  0  0
 37 38  1  0  0  0  0
 37 39  2  0  0  0  0
 38 40  2  0  0  0  0
 39 41  1  0  0  0  0
 40 42  1  0  0  0  0
 41 42  2  0  0  0  0
 43 44  1  0  0  0  0
 43 45  2  0  0  0  0
 44 46  2  0  0  0  0
 45 47  1  0  0  0  0
 46 48  1  0  0  0  0
 47 48  2  0  0  0  0
 49 50  1  0  0  0  0
 49 51  2  0  0  0  0
 50 52  2  0  0  0  0
 51 53  1  0  0  0  0
 52 54  1  0  0  0  0
 53 54  2  0  0  0  0
 55 56  1  0  0  0  0
 55 57  1  0  0  0  0
 52 56  1  0  0  0  0
 48 56  1  0  0  0  0
 41 56  1  0  0  0  0
 32 57  1  0  0  0  0
 25 57  1  0  0  0  0
 21 57  1  0  0  0  0
 55 58  1  0  0  0  0
 58 59  3  0  0  0  0
 60 61  3  0  0  0  0
 55 60  1  0  0  0  0
 61 62  1  0  0  0  0
 14 62  1  0  0  0  0
  8 62  1  0  0  0  0
  4 62  1  0  0  0  0
M  END
> <NMREDATA_VERSION>
1.1

> <NMREDATA_LEVEL>
0

> <NMREDATA_SOLVENT>
DCCl3

> <NMREDATA_TEMPERATURE>
247

> <NMREDATA_FORMULA>
C56H48BNOP2Rh

> <NMREDATA_SMILES>
[O]#C[Rh](P(c1ccccc1)(c1ccccc1)c1ccccc1)(P(c1ccccc1)(c1ccccc1)c1ccccc1)N#C[B](c1ccccc1)(c1ccccc1)c1ccccc1

> <NMREDATA_ASSIGNMENT>
Rh55, -501.00, 55

> <NMREDATA_1D_103Rh>
-501.00, L=Rh55

$$$$

  ACD/LABS03222417422D

 55 63  0  0  0  0  0  0  0  0  1 V2000
   15.7182  -11.8133    0.0000 C    0  0  0  0  0  0  0  0  0  0  0  0
   16.8885  -12.4480    0.0000 C    0  0  0  0  0  0  0  0  0  0  0  0
   14.5794  -12.5079    0.0000 C    0  0  0  0  0  0  0  0  0  0  0  0
   16.9200  -13.7772    0.0000 C    0  0  0  0  0  0  0  0  0  0  0  0
   14.6231  -13.8345    0.0000 C    0  0  0  0  0  0  0  0  0  0  0  0
   15.7934  -14.4692    0.0000 C    0  0  0  0  0  0  0  0  0  0  0  0
   11.4071  -12.8385    0.0000 C    0  0  0  0  0  0  0  0  0  0  0  0
   10.1027  -13.1101    0.0000 C    0  0  0  0  0  0  0  0  0  0  0  0
   12.2928  -13.8417    0.0000 C    0  0  0  0  0  0  0  0  0  0  0  0
    9.6810  -14.3725    0.0000 C    0  0  0  0  0  0  0  0  0  0  0  0
   11.8635  -15.0997    0.0000 C    0  0  0  0  0  0  0  0  0  0  0  0
   10.5639  -15.3639    0.0000 C    0  0  0  0  0  0  0  0  0  0  0  0
   10.8076   -4.1529    0.0000 C    0  0  0  0  0  0  0  0  0  0  0  0
    9.8721   -5.0984    0.0000 C    0  0  0  0  0  0  0  0  0  0  0  0
   10.4435   -2.8669    0.0000 C    0  0  0  0  0  0  0  0  0  0  0  0
    8.5880   -4.7669    0.0000 C    0  0  0  0  0  0  0  0  0  0  0  0
    9.1596   -2.5350    0.0000 C    0  0  0  0  0  0  0  0  0  0  0  0
    8.2320   -3.4851    0.0000 C    0  0  0  0  0  0  0  0  0  0  0  0
    6.2560  -10.3153    0.0000 C    0  0  0  0  0  0  0  0  0  0  0  0
    7.5376   -9.9588    0.0000 C    0  0  0  0  0  0  0  0  0  0  0  0
    5.3058   -9.3878    0.0000 C    0  0  0  0  0  0  0  0  0  0  0  0
    7.8655   -8.6625    0.0000 C    0  0  0  0  0  0  0  0  0  0  0  0
    5.6340   -8.0911    0.0000 C    0  0  0  0  0  0  0  0  0  0  0  0
    6.9154   -7.7349    0.0000 C    0  0  0  0  0  0  0  0  0  0  0  0
   11.7389   -7.1184    0.0000 Rh   0  0  0  0  0  0  0  0  0  0  0  0
   12.6740   -6.1726    0.0000 B    0  0  0  0  0  0  0  0  0  0  0  0
   14.2898   -8.2531    0.0000 N    0  0  0  0  0  0  0  0  0  0  0  0
   15.4782   -8.8573    0.0000 C    0  0  0  0  0  0  0  0  0  0  0  0
   13.3501   -9.2068    0.0000 N    0  0  0  0  0  0  0  0  0  0  0  0
   15.2719  -10.1727    0.0000 C    0  0  0  0  0  0  0  0  0  0  0  0
   13.9637  -10.3798    0.0000 C    0  0  0  0  0  0  0  0  0  0  0  0
    9.0746   -5.8058    0.0000 N    0  0  0  0  0  0  0  0  0  0  0  0
    9.0786   -7.1293    0.0000 N    0  0  0  0  0  0  0  0  0  0  0  0
    7.8028   -5.3994    0.0000 C    0  0  0  0  0  0  0  0  0  0  0  0
    7.8211   -7.5509    0.0000 C    0  0  0  0  0  0  0  0  0  0  0  0
    7.0314   -6.4700    0.0000 C    0  0  0  0  0  0  0  0  0  0  0  0
   13.1398   -4.3720    0.0000 N    0  0  0  0  0  0  0  0  0  0  0  0
   11.8037   -4.3794    0.0000 N    0  0  0  0  0  0  0  0  0  0  0  0
   13.5416   -3.1082    0.0000 C    0  0  0  0  0  0  0  0  0  0  0  0
   11.3867   -3.1139    0.0000 C    0  0  0  0  0  0  0  0  0  0  0  0
   12.4632   -2.3318    0.0000 C    0  0  0  0  0  0  0  0  0  0  0  0
    7.0108   -8.5996    0.0000 C    0  0  0  0  0  0  0  0  0  0  0  0
    5.7029   -6.4818    0.0000 Cl   0  0  0  0  0  0  0  0  0  0  0  0
    7.3858   -4.1340    0.0000 C    0  0  0  0  0  0  0  0  0  0  0  0
   14.8070   -2.6912    0.0000 C    0  0  0  0  0  0  0  0  0  0  0  0
   10.6708   -1.9937    0.0000 C    0  0  0  0  0  0  0  0  0  0  0  0
   16.6639   -8.2409    0.0000 C    0  0  0  0  0  0  0  0  0  0  0  0
   13.3720  -11.5649    0.0000 C    0  0  0  0  0  0  0  0  0  0  0  0
   16.2222  -11.0998    0.0000 Cl   0  0  0  0  0  0  0  0  0  0  0  0
    8.8096  -10.4882    0.0000 C    0  0  0  0  0  0  0  0  0  0  0  0
    8.5410  -11.7879    0.0000 O    0  0  0  0  0  0  0  0  0  0  0  0
   10.6590   -7.8880    0.0000 P    0  0  0  0  0  0  0  0  0  0  0  0
   11.8366  -11.5801    0.0000 P    0  0  0  0  0  0  0  0  0  0  0  0
   11.0156   -9.1696    0.0000 C    0  0  0  0  0  0  0  0  0  0  0  0
   10.4988  -11.6072    0.0000 C    0  0  0  0  0  0  0  0  0  0  0  0
  1  2  1  0  0  0  0
  1  3  2  0  0  0  0
  2  4  2  0  0  0  0
  3  5  1  0  0  0  0
  4  6  1  0  0  0  0
  5  6  2  0  0  0  0
  7  8  1  0  0  0  0
  7  9  2  0  0  0  0
  8 10  2  0  0  0  0
  9 11  1  0  0  0  0
 10 12  1  0  0  0  0
 11 12  2  0  0  0  0
 13 14  1  0  0  0  0
 13 15  2  0  0  0  0
 14 16  2  0  0  0  0
 15 17  1  0  0  0  0
 16 18  1  0  0  0  0
 17 18  2  0  0  0  0
 19 20  1  0  0  0  0
 19 21  2  0  0  0  0
 20 22  2  0  0  0  0
 21 23  1  0  0  0  0
 22 24  1  0  0  0  0
 23 24  2  0  0  0  0
 27 28  1  0  0  0  0
 27 29  1  0  0  0  0
 28 30  2  0  0  0  0
 29 31  2  0  0  0  0
 30 31  1  0  0  0  0
 26 27  1  0  0  0  0
 32 33  1  0  0  0  0
 32 34  1  0  0  0  0
 33 35  2  0  0  0  0
 34 36  2  0  0  0  0
 35 36  1  0  0  0  0
 26 32  1  0  0  0  0
 37 38  1  0  0  0  0
 37 39  1  0  0  0  0
 38 40  2  0  0  0  0
 39 41  2  0  0  0  0
 40 41  1  0  0  0  0
 26 37  1  0  0  0  0
 25 33  1  0  0  0  0
 25 38  1  0  0  0  0
 25 29  1  0  0  0  0
 35 42  1  0  0  0  0
 36 43  1  0  0  0  0
 34 44  1  0  0  0  0
 39 45  1  0  0  0  0
 40 46  1  0  0  0  0
 28 47  1  0  0  0  0
 31 48  1  0  0  0  0
 30 49  1  0  0  0  0
 25 50  1  0  0  0  0
 50 51  3  0  0  0  0
 25 52  1  0  0  0  0
 25 53  1  0  0  0  0
 52 54  1  0  0  0  0
 53 55  1  0  0  0  0
 22 52  1  0  0  0  0
 14 52  1  0  0  0  0
  7 53  1  0  0  0  0
  3 53  1  0  0  0  0
M  END
> <NMREDATA_VERSION>
1.1

> <NMREDATA_LEVEL>
0

> <NMREDATA_SOLVENT>
CD2Cl2

> <NMREDATA_TEMPERATURE>
233

> <NMREDATA_FORMULA>
C42H50BCl2N6OP2Rh

> <NMREDATA_SMILES>
[O]#C[Rh]12(N3=C(C)C=C(N3B(N3N1=C(C)C(=C3C)Cl)N1N2=C(C)C(=C1C)Cl)C)(P(c1ccccc1)(c1ccccc1)C)P(c1ccccc1)(c1ccccc1)C

> <NMREDATA_ASSIGNMENT>
Rh25, 344.00, 25

> <NMREDATA_1D_103Rh>
344.00, L=Rh25

$$$$

  ACD/LABS03222417432D

 35 39  0  0  0  0  0  0  0  0  1 V2000
   11.7433   -5.8846    0.0000 C    0  0  0  0  0  0  0  0  0  0  0  0
    9.9977   -7.8783    0.0000 C    0  0  0  0  0  0  0  0  0  0  0  0
    8.8739   -6.6659    0.0000 C    0  0  0  0  0  0  0  0  0  0  0  0
    8.6454   -9.2802    0.0000 C    0  0  0  0  0  0  0  0  0  0  0  0
   11.8690   -7.7604    0.0000 Rh   0  0  0  0  0  0  0  0  0  0  0  0
   13.1878   -7.6409    0.0000 B    0  0  0  0  0  0  0  0  0  0  0  0
   12.6350   -5.0678    0.0000 N    0  0  0  0  0  0  0  0  0  0  0  0
   12.9434   -3.7704    0.0000 C    0  0  0  0  0  0  0  0  0  0  0  0
   11.3083   -5.1827    0.0000 N    0  0  0  0  0  0  0  0  0  0  0  0
   11.8040   -3.0816    0.0000 C    0  0  0  0  0  0  0  0  0  0  0  0
   10.7977   -3.9554    0.0000 C    0  0  0  0  0  0  0  0  0  0  0  0
   11.1715  -10.6359    0.0000 N    0  0  0  0  0  0  0  0  0  0  0  0
   10.1576   -9.7843    0.0000 N    0  0  0  0  0  0  0  0  0  0  0  0
   10.6642  -11.8696    0.0000 C    0  0  0  0  0  0  0  0  0  0  0  0
    9.0263  -10.4837    0.0000 C    0  0  0  0  0  0  0  0  0  0  0  0
    9.3466  -11.7751    0.0000 C    0  0  0  0  0  0  0  0  0  0  0  0
   14.8723   -8.4495    0.0000 N    0  0  0  0  0  0  0  0  0  0  0  0
   14.0129   -9.4594    0.0000 N    0  0  0  0  0  0  0  0  0  0  0  0
   16.1028   -8.9449    0.0000 C    0  0  0  0  0  0  0  0  0  0  0  0
   14.7166  -10.5826    0.0000 C    0  0  0  0  0  0  0  0  0  0  0  0
   16.0035  -10.2707    0.0000 C    0  0  0  0  0  0  0  0  0  0  0  0
    7.8004   -9.9805    0.0000 C    0  0  0  0  0  0  0  0  0  0  0  0
    8.4824  -12.7926    0.0000 Cl   0  0  0  0  0  0  0  0  0  0  0  0
   11.3637  -13.0009    0.0000 C    0  0  0  0  0  0  0  0  0  0  0  0
   17.2340   -8.2454    0.0000 C    0  0  0  0  0  0  0  0  0  0  0  0
   14.2172  -11.8208    0.0000 C    0  0  0  0  0  0  0  0  0  0  0  0
   14.1706   -3.2598    0.0000 C    0  0  0  0  0  0  0  0  0  0  0  0
    9.5003   -3.6470    0.0000 C    0  0  0  0  0  0  0  0  0  0  0  0
   11.6891   -1.7549    0.0000 Cl   0  0  0  0  0  0  0  0  0  0  0  0
   10.8716   -8.6188    0.0000 C    0  0  0  0  0  0  0  0  0  0  0  0
    9.6224   -9.0963    0.0000 O    0  0  0  0  0  0  0  0  0  0  0  0
    8.9891   -7.9928    0.0000 P    0  0  0  0  0  0  0  0  0  0  0  0
   10.8681   -6.8856    0.0000 P    0  0  0  0  0  0  0  0  0  0  0  0
    7.6623   -8.1080    0.0000 C    0  0  0  0  0  0  0  0  0  0  0  0
    9.8673   -6.0106    0.0000 C    0  0  0  0  0  0  0  0  0  0  0  0
  7  8  1  0  0  0  0
  7  9  1  0  0  0  0
  8 10  2  0  0  0  0
  9 11  2  0  0  0  0
 10 11  1  0  0  0  0
  6  7  1  0  0  0  0
 12 13  1  0  0  0  0
 12 14  1  0  0  0  0
 13 15  2  0  0  0  0
 14 16  2  0  0  0  0
 15 16  1  0  0  0  0
  6 12  1  0  0  0  0
 17 18  1  0  0  0  0
 17 19  1  0  0  0  0
 18 20  2  0  0  0  0
 19 21  2  0  0  0  0
 20 21  1  0  0  0  0
  6 17  1  0  0  0  0
  5 13  1  0  0  0  0
  5 18  1  0  0  0  0
  5  9  1  0  0  0  0
 15 22  1  0  0  0  0
 16 23  1  0  0  0  0
 14 24  1  0  0  0  0
 19 25  1  0  0  0  0
 20 26  1  0  0  0  0
  8 27  1  0  0  0  0
 11 28  1  0  0  0  0
 10 29  1  0  0  0  0
  5 30  1  0  0  0  0
 30 31  3  0  0  0  0
  5 32  1  0  0  0  0
  5 33  1  0  0  0  0
 32 34  1  0  0  0  0
 33 35  1  0  0  0  0
  4 32  1  0  0  0  0
  3 32  1  0  0  0  0
  2 33  1  0  0  0  0
  1 33  1  0  0  0  0
M  END
> <NMREDATA_VERSION>
1.1

> <NMREDATA_LEVEL>
0

> <NMREDATA_SOLVENT>
CD2Cl2

> <NMREDATA_TEMPERATURE>
298

> <NMREDATA_FORMULA>
C22H42BCl2N6OP2Rh

> <NMREDATA_SMILES>
[O]#C[Rh]12(N3=C(C)C=C(N3B(N3N1=C(C)C(=C3C)Cl)N1N2=C(C)C(=C1C)Cl)C)(P(C)(C)C)P(C)(C)C

> <NMREDATA_ASSIGNMENT>
Rh5, -312.00, 5

> <NMREDATA_1D_103Rh>
-312.00, L=Rh5

$$$$

  ACD/LABS03112411132D

 42 45  0  0  0  0  0  0  0  0  2 V2000
   11.3675  -18.0538    0.0000 C    0  0  0  0  0  0  0  0  0  0  0  0
   12.0327  -19.2055    0.0000 C    0  0  0  0  0  0  0  0  0  0  0  0
   12.0322  -16.9026    0.0000 C    0  0  0  0  0  0  0  0  0  0  0  0
   13.3630  -19.2059    0.0000 C    0  0  0  0  0  0  0  0  0  0  0  0
   13.3622  -16.9029    0.0000 C    0  0  0  0  0  0  0  0  0  0  0  0
   14.0277  -18.0547    0.0000 C    0  0  0  0  0  0  0  0  0  0  0  0
   16.1861  -14.9721    0.0000 C    0  0  0  0  0  0  0  0  0  0  0  0
   17.0413  -13.9516    0.0000 C    0  0  0  0  0  0  0  0  0  0  0  0
   14.8776  -14.7388    0.0000 C    0  0  0  0  0  0  0  0  0  0  0  0
   16.5766  -12.7006    0.0000 C    0  0  0  0  0  0  0  0  0  0  0  0
   14.4205  -13.4923    0.0000 C    0  0  0  0  0  0  0  0  0  0  0  0
   15.2758  -12.4717    0.0000 C    0  0  0  0  0  0  0  0  0  0  0  0
   15.0430  -16.6151    0.0000 C    0  0  0  0  0  0  0  0  0  0  0  0
   16.2895  -16.1576    0.0000 C    0  0  0  0  0  0  0  0  0  0  0  0
   14.8142  -17.9151    0.0000 C    0  0  0  0  0  0  0  0  0  0  0  0
   17.3103  -17.0130    0.0000 C    0  0  0  0  0  0  0  0  0  0  0  0
   15.8351  -18.7706    0.0000 C    0  0  0  0  0  0  0  0  0  0  0  0
   17.0858  -18.3056    0.0000 C    0  0  0  0  0  0  0  0  0  0  0  0
   11.0051  -13.7719    0.0000 N    0  0  0  0  0  0  0  0  0  0  0  0
   11.5470  -12.5499    0.0000 C    0  0  0  0  0  0  0  0  0  0  0  0
    9.6910  -13.6374    0.0000 N    0  0  0  0  0  0  0  0  0  0  0  0
   10.5516  -11.6681    0.0000 C    0  0  0  0  0  0  0  0  0  0  0  0
    9.4075  -12.3380    0.0000 C    0  0  0  0  0  0  0  0  0  0  0  0
    8.1887  -11.8083    0.0000 C    0  0  0  0  0  0  0  0  0  0  0  0
   12.8422  -12.2743    0.0000 C    0  0  0  0  0  0  0  0  0  0  0  0
   13.0018  -14.9041    0.0000 Rh   0  3  0  0  0  0  0  0  0  0  0  0
   11.6827  -14.9205    0.0000 C    0  0  0  0  0  0  0  0  0  0  0  0
   10.8394  -15.9377    0.0000 N    0  0  0  0  0  0  0  0  0  0  0  0
    9.5107  -15.8461    0.0000 C    0  0  0  0  0  0  0  0  0  0  0  0
   11.1713  -17.2243    0.0000 N    0  0  0  0  0  0  0  0  0  0  0  0
    9.0195  -17.0871    0.0000 C    0  0  0  0  0  0  0  0  0  0  0  0
   10.0448  -17.9348    0.0000 C    0  0  0  0  0  0  0  0  0  0  0  0
    9.9649  -19.2604    0.0000 C    0  0  0  0  0  0  0  0  0  0  0  0
    8.7958  -14.7270    0.0000 C    0  0  0  0  0  0  0  0  0  0  0  0
   14.0222  -15.7597    0.0000 P    0  0  0  0  0  0  0  0  0  0  0  0
   13.4532  -13.6607    0.0000 C    0  0  0  0  0  0  0  0  0  0  0  0
   13.9099  -12.4097    0.0000 O    0  0  0  0  0  0  0  0  0  0  0  0
   24.6130  -14.9665    0.0000 B    0  5  0  0  0  0  0  0  0  0  0  0
   24.6130  -13.5884    0.0000 F    0  0  0  0  0  0  0  0  0  0  0  0
   25.9911  -14.9665    0.0000 F    0  0  0  0  0  0  0  0  0  0  0  0
   23.2349  -14.9665    0.0000 F    0  0  0  0  0  0  0  0  0  0  0  0
   24.6130  -16.3446    0.0000 F    0  0  0  0  0  0  0  0  0  0  0  0
  1  2  1  0  0  0  0
  1  3  2  0  0  0  0
  2  4  2  0  0  0  0
  3  5  1  0  0  0  0
  4  6  1  0  0  0  0
  5  6  2  0  0  0  0
  7  8  1  0  0  0  0
  7  9  2  0  0  0  0
  8 10  2  0  0  0  0
  9 11  1  0  0  0  0
 10 12  1  0  0  0  0
 11 12  2  0  0  0  0
 13 14  1  0  0  0  0
 13 15  2  0  0  0  0
 14 16  2  0  0  0  0
 15 17  1  0  0  0  0
 16 18  1  0  0  0  0
 17 18  2  0  0  0  0
 19 20  1  0  0  0  0
 19 21  1  0  0  0  0
 20 22  2  0  0  0  0
 21 23  2  0  0  0  0
 22 23  1  0  0  0  0
 23 24  1  0  0  0  0
 20 25  1  0  0  0  0
 26 27  1  0  0  0  0
 28 29  1  0  0  0  0
 28 30  1  0  0  0  0
 29 31  2  0  0  0  0
 30 32  2  0  0  0  0
 31 32  1  0  0  0  0
 27 28  1  0  0  0  0
 32 33  1  0  0  0  0
 29 34  1  0  0  0  0
 19 27  1  0  0  0  0
 26 35  1  0  0  0  0
 13 35  1  0  0  0  0
  9 35  1  0  0  0  0
  5 35  1  0  0  0  0
 26 36  1  0  0  0  0
 36 37  3  0  0  0  0
 38 39  1  0  0  0  0
 38 40  1  0  0  0  0
 38 41  1  0  0  0  0
 38 42  1  0  0  0  0
M  END
> <NMREDATA_VERSION>
1.1

> <NMREDATA_LEVEL>
0

> <NMREDATA_SOLVENT>
acetone

> <NMREDATA_TEMPERATURE>
298

> <NMREDATA_FORMULA>
C30H31BF4N4OPRh

> <NMREDATA_SMILES>
F[B](F)(F)F.[O]#C[Rh](P(c1ccccc1)(c1ccccc1)c1ccccc1)C(n1nc(cc1C)C)n1nc(cc1C)C

> <NMREDATA_ASSIGNMENT>
Rh26, -91.00, 26

> <NMREDATA_1D_103Rh>
-91.00, L=Rh26

$$$$

  ACD/LABS03112411142D

 37 39  0  0  0  0  0  0  0  0  2 V2000
   11.3675  -18.0538    0.0000 C    0  0  0  0  0  0  0  0  0  0  0  0
   12.0327  -19.2055    0.0000 C    0  0  0  0  0  0  0  0  0  0  0  0
   12.0322  -16.9026    0.0000 C    0  0  0  0  0  0  0  0  0  0  0  0
   13.3630  -19.2059    0.0000 C    0  0  0  0  0  0  0  0  0  0  0  0
   13.3622  -16.9029    0.0000 C    0  0  0  0  0  0  0  0  0  0  0  0
   14.0277  -18.0547    0.0000 C    0  0  0  0  0  0  0  0  0  0  0  0
   16.1861  -14.9721    0.0000 C    0  0  0  0  0  0  0  0  0  0  0  0
   17.0413  -13.9516    0.0000 C    0  0  0  0  0  0  0  0  0  0  0  0
   14.8776  -14.7388    0.0000 C    0  0  0  0  0  0  0  0  0  0  0  0
   16.5766  -12.7006    0.0000 C    0  0  0  0  0  0  0  0  0  0  0  0
   14.4205  -13.4923    0.0000 C    0  0  0  0  0  0  0  0  0  0  0  0
   15.2758  -12.4717    0.0000 C    0  0  0  0  0  0  0  0  0  0  0  0
   11.0051  -13.7719    0.0000 N    0  0  0  0  0  0  0  0  0  0  0  0
   11.5470  -12.5499    0.0000 C    0  0  0  0  0  0  0  0  0  0  0  0
    9.6910  -13.6374    0.0000 N    0  0  0  0  0  0  0  0  0  0  0  0
   10.5516  -11.6681    0.0000 C    0  0  0  0  0  0  0  0  0  0  0  0
    9.4075  -12.3380    0.0000 C    0  0  0  0  0  0  0  0  0  0  0  0
    8.1887  -11.8083    0.0000 C    0  0  0  0  0  0  0  0  0  0  0  0
   12.8422  -12.2743    0.0000 C    0  0  0  0  0  0  0  0  0  0  0  0
   13.0018  -14.9041    0.0000 Rh   0  3  0  0  0  0  0  0  0  0  0  0
   11.6827  -14.9205    0.0000 C    0  0  0  0  0  0  0  0  0  0  0  0
   10.8394  -15.9377    0.0000 N    0  0  0  0  0  0  0  0  0  0  0  0
    9.5107  -15.8461    0.0000 C    0  0  0  0  0  0  0  0  0  0  0  0
   11.1713  -17.2243    0.0000 N    0  0  0  0  0  0  0  0  0  0  0  0
    9.0195  -17.0871    0.0000 C    0  0  0  0  0  0  0  0  0  0  0  0
   10.0448  -17.9348    0.0000 C    0  0  0  0  0  0  0  0  0  0  0  0
    9.9649  -19.2604    0.0000 C    0  0  0  0  0  0  0  0  0  0  0  0
    8.7958  -14.7270    0.0000 C    0  0  0  0  0  0  0  0  0  0  0  0
   14.0222  -15.7597    0.0000 P    0  0  0  0  0  0  0  0  0  0  0  0
   13.4532  -13.6607    0.0000 C    0  0  0  0  0  0  0  0  0  0  0  0
   13.9099  -12.4097    0.0000 O    0  0  0  0  0  0  0  0  0  0  0  0
   15.5113  -16.6330    0.0000 C    0  0  0  0  0  0  0  0  0  0  0  0
   24.6130  -14.9665    0.0000 B    0  5  0  0  0  0  0  0  0  0  0  0
   24.6130  -13.5884    0.0000 F    0  0  0  0  0  0  0  0  0  0  0  0
   25.9911  -14.9665    0.0000 F    0  0  0  0  0  0  0  0  0  0  0  0
   23.2349  -14.9665    0.0000 F    0  0  0  0  0  0  0  0  0  0  0  0
   24.6130  -16.3446    0.0000 F    0  0  0  0  0  0  0  0  0  0  0  0
  1  2  1  0  0  0  0
  1  3  2  0  0  0  0
  2  4  2  0  0  0  0
  3  5  1  0  0  0  0
  4  6  1  0  0  0  0
  5  6  2  0  0  0  0
  7  8  1  0  0  0  0
  7  9  2  0  0  0  0
  8 10  2  0  0  0  0
  9 11  1  0  0  0  0
 10 12  1  0  0  0  0
 11 12  2  0  0  0  0
 13 14  1  0  0  0  0
 13 15  1  0  0  0  0
 14 16  2  0  0  0  0
 15 17  2  0  0  0  0
 16 17  1  0  0  0  0
 17 18  1  0  0  0  0
 14 19  1  0  0  0  0
 20 21  1  0  0  0  0
 22 23  1  0  0  0  0
 22 24  1  0  0  0  0
 23 25  2  0  0  0  0
 24 26  2  0  0  0  0
 25 26  1  0  0  0  0
 21 22  1  0  0  0  0
 26 27  1  0  0  0  0
 23 28  1  0  0  0  0
 13 21  1  0  0  0  0
 20 29  1  0  0  0  0
  9 29  1  0  0  0  0
  5 29  1  0  0  0  0
 20 30  1  0  0  0  0
 30 31  3  0  0  0  0
 29 32  1  0  0  0  0
 33 34  1  0  0  0  0
 33 35  1  0  0  0  0
 33 36  1  0  0  0  0
 33 37  1  0  0  0  0
M  END
> <NMREDATA_VERSION>
1.1

> <NMREDATA_LEVEL>
0

> <NMREDATA_SOLVENT>
acetone

> <NMREDATA_TEMPERATURE>
298

> <NMREDATA_FORMULA>
C25H29BF4N4OPRh

> <NMREDATA_SMILES>
F[B](F)(F)F.[O]#C[Rh](P(c1ccccc1)(c1ccccc1)C)C(n1nc(cc1C)C)n1nc(cc1C)C

> <NMREDATA_ASSIGNMENT>
Rh20, -175.00, 20

> <NMREDATA_1D_103Rh>
-175.00, L=Rh20

$$$$

  ACD/LABS03112411152D

 42 47  0  0  0  0  0  0  0  0  1 V2000
   12.1924  -19.5254    0.0000 C    0  0  0  0  0  0  0  0  0  0  0  0
   12.1924  -20.8554    0.0000 C    0  0  0  0  0  0  0  0  0  0  0  0
   11.0405  -18.8604    0.0000 C    0  0  0  0  0  0  0  0  0  0  0  0
   11.0405  -21.5204    0.0000 C    0  0  0  0  0  0  0  0  0  0  0  0
    9.8888  -19.5254    0.0000 C    0  0  0  0  0  0  0  0  0  0  0  0
    9.8888  -20.8554    0.0000 C    0  0  0  0  0  0  0  0  0  0  0  0
    9.1479  -19.2209    0.0000 C    0  0  0  0  0  0  0  0  0  0  0  0
    9.1479  -20.5509    0.0000 C    0  0  0  0  0  0  0  0  0  0  0  0
    7.9960  -18.5559    0.0000 C    0  0  0  0  0  0  0  0  0  0  0  0
    7.9960  -21.2159    0.0000 C    0  0  0  0  0  0  0  0  0  0  0  0
    6.8442  -19.2209    0.0000 C    0  0  0  0  0  0  0  0  0  0  0  0
    6.8442  -20.5509    0.0000 C    0  0  0  0  0  0  0  0  0  0  0  0
    7.4493  -16.7532    0.0000 C    0  0  0  0  0  0  0  0  0  0  0  0
    7.4493  -18.0832    0.0000 C    0  0  0  0  0  0  0  0  0  0  0  0
    6.2974  -16.0882    0.0000 C    0  0  0  0  0  0  0  0  0  0  0  0
    6.2974  -18.7482    0.0000 C    0  0  0  0  0  0  0  0  0  0  0  0
    5.1456  -16.7532    0.0000 C    0  0  0  0  0  0  0  0  0  0  0  0
    5.1456  -18.0832    0.0000 C    0  0  0  0  0  0  0  0  0  0  0  0
   19.8359  -15.4392    0.0000 C    0  0  0  0  0  0  0  0  0  0  0  0
   19.8359  -16.7692    0.0000 C    0  0  0  0  0  0  0  0  0  0  0  0
   18.6840  -14.7742    0.0000 C    0  0  0  0  0  0  0  0  0  0  0  0
   18.6840  -17.4342    0.0000 C    0  0  0  0  0  0  0  0  0  0  0  0
   17.5323  -15.4392    0.0000 C    0  0  0  0  0  0  0  0  0  0  0  0
   17.5323  -16.7692    0.0000 C    0  0  0  0  0  0  0  0  0  0  0  0
   19.8359  -12.1703    0.0000 C    0  0  0  0  0  0  0  0  0  0  0  0
   19.8359  -13.5003    0.0000 C    0  0  0  0  0  0  0  0  0  0  0  0
   18.6840  -11.5053    0.0000 C    0  0  0  0  0  0  0  0  0  0  0  0
   18.6840  -14.1653    0.0000 C    0  0  0  0  0  0  0  0  0  0  0  0
   17.5323  -12.1703    0.0000 C    0  0  0  0  0  0  0  0  0  0  0  0
   17.5323  -13.5003    0.0000 C    0  0  0  0  0  0  0  0  0  0  0  0
   17.2400  -10.4237    0.0000 C    0  0  0  0  0  0  0  0  0  0  0  0
   17.2400  -11.7537    0.0000 C    0  0  0  0  0  0  0  0  0  0  0  0
   16.0881   -9.7587    0.0000 C    0  0  0  0  0  0  0  0  0  0  0  0
   16.0881  -12.4187    0.0000 C    0  0  0  0  0  0  0  0  0  0  0  0
   14.9364  -10.4237    0.0000 C    0  0  0  0  0  0  0  0  0  0  0  0
   14.9364  -11.7537    0.0000 C    0  0  0  0  0  0  0  0  0  0  0  0
   12.4828  -16.0241    0.0000 Rh   0  0  0  0  0  0  0  0  0  0  0  0
   15.1588  -14.6621    0.0000 P    0  0  0  0  0  0  0  0  0  0  0  0
   10.2875  -17.4663    0.0000 P    0  0  0  0  0  0  0  0  0  0  0  0
   11.2329  -14.9825    0.0000 O    0  0  0  0  0  0  0  0  0  0  0  0
   13.6686  -17.2099    0.0000 C    0  0  0  0  0  0  0  0  0  0  0  0
   15.1588  -18.4758    0.0000 O    0  0  0  0  0  0  0  0  0  0  0  0
  1  2  1  0  0  0  0
  1  3  2  0  0  0  0
  2  4  2  0  0  0  0
  3  5  1  0  0  0  0
  4  6  1  0  0  0  0
  5  6  2  0  0  0  0
  7  8  1  0  0  0  0
  7  9  2  0  0  0  0
  8 10  2  0  0  0  0
  9 11  1  0  0  0  0
 10 12  1  0  0  0  0
 11 12  2  0  0  0  0
 13 14  1  0  0  0  0
 13 15  2  0  0  0  0
 14 16  2  0  0  0  0
 15 17  1  0  0  0  0
 16 18  1  0  0  0  0
 17 18  2  0  0  0  0
 19 20  1  0  0  0  0
 19 21  2  0  0  0  0
 20 22  2  0  0  0  0
 21 23  1  0  0  0  0
 22 24  1  0  0  0  0
 23 24  2  0  0  0  0
 25 26  1  0  0  0  0
 25 27  2  0  0  0  0
 26 28  2  0  0  0  0
 27 29  1  0  0  0  0
 28 30  1  0  0  0  0
 29 30  2  0  0  0  0
 31 32  1  0  0  0  0
 31 33  2  0  0  0  0
 32 34  2  0  0  0  0
 33 35  1  0  0  0  0
 34 36  1  0  0  0  0
 35 36  2  0  0  0  0
 37 38  1  0  0  0  0
 37 39  1  0  0  0  0
 34 38  1  0  0  0  0
 30 38  1  0  0  0  0
 23 38  1  0  0  0  0
 13 39  1  0  0  0  0
  9 39  1  0  0  0  0
  3 39  1  0  0  0  0
 37 40  1  0  0  0  0
 37 41  1  0  0  0  0
 41 42  3  0  0  0  0
M  END
> <NMREDATA_VERSION>
1.1

> <NMREDATA_LEVEL>
0

> <NMREDATA_SOLVENT>
CD2Cl2

> <NMREDATA_TEMPERATURE>
253

> <NMREDATA_FORMULA>
C37H33O2P2Rh

> <NMREDATA_SMILES>
[O]#C[Rh](P(c1ccccc1)(c1ccccc1)c1ccccc1)(P(c1ccccc1)(c1ccccc1)c1ccccc1)O

> <NMREDATA_ASSIGNMENT>
Rh37, -300.00, 37

> <NMREDATA_1D_103Rh>
-300.00, L=Rh37

$$$$

  ACD/LABS03112411162D

 45 50  0  0  0  0  0  0  0  0  1 V2000
   12.1924  -19.5254    0.0000 C    0  0  0  0  0  0  0  0  0  0  0  0
   12.1924  -20.8554    0.0000 C    0  0  0  0  0  0  0  0  0  0  0  0
   11.0405  -18.8604    0.0000 C    0  0  0  0  0  0  0  0  0  0  0  0
   11.0405  -21.5204    0.0000 C    0  0  0  0  0  0  0  0  0  0  0  0
    9.8888  -19.5254    0.0000 C    0  0  0  0  0  0  0  0  0  0  0  0
    9.8888  -20.8554    0.0000 C    0  0  0  0  0  0  0  0  0  0  0  0
    9.1479  -19.2209    0.0000 C    0  0  0  0  0  0  0  0  0  0  0  0
    9.1479  -20.5509    0.0000 C    0  0  0  0  0  0  0  0  0  0  0  0
    7.9960  -18.5559    0.0000 C    0  0  0  0  0  0  0  0  0  0  0  0
    7.9960  -21.2159    0.0000 C    0  0  0  0  0  0  0  0  0  0  0  0
    6.8442  -19.2209    0.0000 C    0  0  0  0  0  0  0  0  0  0  0  0
    6.8442  -20.5509    0.0000 C    0  0  0  0  0  0  0  0  0  0  0  0
    7.4493  -16.7532    0.0000 C    0  0  0  0  0  0  0  0  0  0  0  0
    7.4493  -18.0832    0.0000 C    0  0  0  0  0  0  0  0  0  0  0  0
    6.2974  -16.0882    0.0000 C    0  0  0  0  0  0  0  0  0  0  0  0
    6.2974  -18.7482    0.0000 C    0  0  0  0  0  0  0  0  0  0  0  0
    5.1456  -16.7532    0.0000 C    0  0  0  0  0  0  0  0  0  0  0  0
    5.1456  -18.0832    0.0000 C    0  0  0  0  0  0  0  0  0  0  0  0
   19.8359  -15.4392    0.0000 C    0  0  0  0  0  0  0  0  0  0  0  0
   19.8359  -16.7692    0.0000 C    0  0  0  0  0  0  0  0  0  0  0  0
   18.6840  -14.7742    0.0000 C    0  0  0  0  0  0  0  0  0  0  0  0
   18.6840  -17.4342    0.0000 C    0  0  0  0  0  0  0  0  0  0  0  0
   17.5323  -15.4392    0.0000 C    0  0  0  0  0  0  0  0  0  0  0  0
   17.5323  -16.7692    0.0000 C    0  0  0  0  0  0  0  0  0  0  0  0
   19.8359  -12.1703    0.0000 C    0  0  0  0  0  0  0  0  0  0  0  0
   19.8359  -13.5003    0.0000 C    0  0  0  0  0  0  0  0  0  0  0  0
   18.6840  -11.5053    0.0000 C    0  0  0  0  0  0  0  0  0  0  0  0
   18.6840  -14.1653    0.0000 C    0  0  0  0  0  0  0  0  0  0  0  0
   17.5323  -12.1703    0.0000 C    0  0  0  0  0  0  0  0  0  0  0  0
   17.5323  -13.5003    0.0000 C    0  0  0  0  0  0  0  0  0  0  0  0
   17.2400  -10.4237    0.0000 C    0  0  0  0  0  0  0  0  0  0  0  0
   17.2400  -11.7537    0.0000 C    0  0  0  0  0  0  0  0  0  0  0  0
   16.0881   -9.7587    0.0000 C    0  0  0  0  0  0  0  0  0  0  0  0
   16.0881  -12.4187    0.0000 C    0  0  0  0  0  0  0  0  0  0  0  0
   14.9364  -10.4237    0.0000 C    0  0  0  0  0  0  0  0  0  0  0  0
   14.9364  -11.7537    0.0000 C    0  0  0  0  0  0  0  0  0  0  0  0
   12.4828  -16.0241    0.0000 Rh   0  0  0  0  0  0  0  0  0  0  0  0
   15.1588  -14.6621    0.0000 P    0  0  0  0  0  0  0  0  0  0  0  0
   10.2875  -17.4663    0.0000 P    0  0  0  0  0  0  0  0  0  0  0  0
   11.2329  -14.9825    0.0000 O    0  0  0  0  0  0  0  0  0  0  0  0
   13.6686  -17.2099    0.0000 C    0  0  0  0  0  0  0  0  0  0  0  0
   15.1588  -18.4758    0.0000 O    0  0  0  0  0  0  0  0  0  0  0  0
   10.1913  -14.2134    0.0000 C    0  0  0  0  0  0  0  0  0  0  0  0
   11.3130  -13.1558    0.0000 O    0  0  0  0  0  0  0  0  0  0  0  0
    8.9895  -13.6686    0.0000 C    0  0  0  0  0  0  0  0  0  0  0  0
  1  2  1  0  0  0  0
  1  3  2  0  0  0  0
  2  4  2  0  0  0  0
  3  5  1  0  0  0  0
  4  6  1  0  0  0  0
  5  6  2  0  0  0  0
  7  8  1  0  0  0  0
  7  9  2  0  0  0  0
  8 10  2  0  0  0  0
  9 11  1  0  0  0  0
 10 12  1  0  0  0  0
 11 12  2  0  0  0  0
 13 14  1  0  0  0  0
 13 15  2  0  0  0  0
 14 16  2  0  0  0  0
 15 17  1  0  0  0  0
 16 18  1  0  0  0  0
 17 18  2  0  0  0  0
 19 20  1  0  0  0  0
 19 21  2  0  0  0  0
 20 22  2  0  0  0  0
 21 23  1  0  0  0  0
 22 24  1  0  0  0  0
 23 24  2  0  0  0  0
 25 26  1  0  0  0  0
 25 27  2  0  0  0  0
 26 28  2  0  0  0  0
 27 29  1  0  0  0  0
 28 30  1  0  0  0  0
 29 30  2  0  0  0  0
 31 32  1  0  0  0  0
 31 33  2  0  0  0  0
 32 34  2  0  0  0  0
 33 35  1  0  0  0  0
 34 36  1  0  0  0  0
 35 36  2  0  0  0  0
 37 38  1  0  0  0  0
 37 39  1  0  0  0  0
 34 38  1  0  0  0  0
 30 38  1  0  0  0  0
 23 38  1  0  0  0  0
 13 39  1  0  0  0  0
  9 39  1  0  0  0  0
  3 39  1  0  0  0  0
 37 40  1  0  0  0  0
 37 41  1  0  0  0  0
 41 42  3  0  0  0  0
 40 43  1  0  0  0  0
 43 44  2  0  0  0  0
 43 45  1  0  0  0  0
M  END
> <NMREDATA_VERSION>
1.1

> <NMREDATA_LEVEL>
0

> <NMREDATA_SOLVENT>
CD2Cl2

> <NMREDATA_TEMPERATURE>
243

> <NMREDATA_FORMULA>
C39H35O3P2Rh

> <NMREDATA_SMILES>
[O]#C[Rh](P(c1ccccc1)(c1ccccc1)c1ccccc1)(P(c1ccccc1)(c1ccccc1)c1ccccc1)OC(=O)C

> <NMREDATA_ASSIGNMENT>
Rh37, -261.00, 37

> <NMREDATA_1D_103Rh>
-261.00, L=Rh37

$$$$

  ACD/LABS03112411162D

 48 53  0  0  0  0  0  0  0  0  1 V2000
   12.1924  -19.5254    0.0000 C    0  0  0  0  0  0  0  0  0  0  0  0
   12.1924  -20.8554    0.0000 C    0  0  0  0  0  0  0  0  0  0  0  0
   11.0405  -18.8604    0.0000 C    0  0  0  0  0  0  0  0  0  0  0  0
   11.0405  -21.5204    0.0000 C    0  0  0  0  0  0  0  0  0  0  0  0
    9.8888  -19.5254    0.0000 C    0  0  0  0  0  0  0  0  0  0  0  0
    9.8888  -20.8554    0.0000 C    0  0  0  0  0  0  0  0  0  0  0  0
    9.1479  -19.2209    0.0000 C    0  0  0  0  0  0  0  0  0  0  0  0
    9.1479  -20.5509    0.0000 C    0  0  0  0  0  0  0  0  0  0  0  0
    7.9960  -18.5559    0.0000 C    0  0  0  0  0  0  0  0  0  0  0  0
    7.9960  -21.2159    0.0000 C    0  0  0  0  0  0  0  0  0  0  0  0
    6.8442  -19.2209    0.0000 C    0  0  0  0  0  0  0  0  0  0  0  0
    6.8442  -20.5509    0.0000 C    0  0  0  0  0  0  0  0  0  0  0  0
    7.4493  -16.7532    0.0000 C    0  0  0  0  0  0  0  0  0  0  0  0
    7.4493  -18.0832    0.0000 C    0  0  0  0  0  0  0  0  0  0  0  0
    6.2974  -16.0882    0.0000 C    0  0  0  0  0  0  0  0  0  0  0  0
    6.2974  -18.7482    0.0000 C    0  0  0  0  0  0  0  0  0  0  0  0
    5.1456  -16.7532    0.0000 C    0  0  0  0  0  0  0  0  0  0  0  0
    5.1456  -18.0832    0.0000 C    0  0  0  0  0  0  0  0  0  0  0  0
   19.8359  -15.4392    0.0000 C    0  0  0  0  0  0  0  0  0  0  0  0
   19.8359  -16.7692    0.0000 C    0  0  0  0  0  0  0  0  0  0  0  0
   18.6840  -14.7742    0.0000 C    0  0  0  0  0  0  0  0  0  0  0  0
   18.6840  -17.4342    0.0000 C    0  0  0  0  0  0  0  0  0  0  0  0
   17.5323  -15.4392    0.0000 C    0  0  0  0  0  0  0  0  0  0  0  0
   17.5323  -16.7692    0.0000 C    0  0  0  0  0  0  0  0  0  0  0  0
   19.8359  -12.1703    0.0000 C    0  0  0  0  0  0  0  0  0  0  0  0
   19.8359  -13.5003    0.0000 C    0  0  0  0  0  0  0  0  0  0  0  0
   18.6840  -11.5053    0.0000 C    0  0  0  0  0  0  0  0  0  0  0  0
   18.6840  -14.1653    0.0000 C    0  0  0  0  0  0  0  0  0  0  0  0
   17.5323  -12.1703    0.0000 C    0  0  0  0  0  0  0  0  0  0  0  0
   17.5323  -13.5003    0.0000 C    0  0  0  0  0  0  0  0  0  0  0  0
   17.2400  -10.4237    0.0000 C    0  0  0  0  0  0  0  0  0  0  0  0
   17.2400  -11.7537    0.0000 C    0  0  0  0  0  0  0  0  0  0  0  0
   16.0881   -9.7587    0.0000 C    0  0  0  0  0  0  0  0  0  0  0  0
   16.0881  -12.4187    0.0000 C    0  0  0  0  0  0  0  0  0  0  0  0
   14.9364  -10.4237    0.0000 C    0  0  0  0  0  0  0  0  0  0  0  0
   14.9364  -11.7537    0.0000 C    0  0  0  0  0  0  0  0  0  0  0  0
   12.4828  -16.0241    0.0000 Rh   0  0  0  0  0  0  0  0  0  0  0  0
   15.1588  -14.6621    0.0000 P    0  0  0  0  0  0  0  0  0  0  0  0
   10.2875  -17.4663    0.0000 P    0  0  0  0  0  0  0  0  0  0  0  0
   11.2329  -14.9825    0.0000 O    0  0  0  0  0  0  0  0  0  0  0  0
   13.6686  -17.2099    0.0000 C    0  0  0  0  0  0  0  0  0  0  0  0
   15.1588  -18.4758    0.0000 O    0  0  0  0  0  0  0  0  0  0  0  0
   10.1913  -14.2134    0.0000 C    0  0  0  0  0  0  0  0  0  0  0  0
   11.3130  -13.1558    0.0000 O    0  0  0  0  0  0  0  0  0  0  0  0
    8.9895  -13.6686    0.0000 C    0  0  0  0  0  0  0  0  0  0  0  0
    9.0376  -12.6911    0.0000 F    0  0  0  0  0  0  0  0  0  0  0  0
    8.0601  -13.7968    0.0000 F    0  0  0  0  0  0  0  0  0  0  0  0
    8.8293  -14.3576    0.0000 F    0  0  0  0  0  0  0  0  0  0  0  0
  1  2  1  0  0  0  0
  1  3  2  0  0  0  0
  2  4  2  0  0  0  0
  3  5  1  0  0  0  0
  4  6  1  0  0  0  0
  5  6  2  0  0  0  0
  7  8  1  0  0  0  0
  7  9  2  0  0  0  0
  8 10  2  0  0  0  0
  9 11  1  0  0  0  0
 10 12  1  0  0  0  0
 11 12  2  0  0  0  0
 13 14  1  0  0  0  0
 13 15  2  0  0  0  0
 14 16  2  0  0  0  0
 15 17  1  0  0  0  0
 16 18  1  0  0  0  0
 17 18  2  0  0  0  0
 19 20  1  0  0  0  0
 19 21  2  0  0  0  0
 20 22  2  0  0  0  0
 21 23  1  0  0  0  0
 22 24  1  0  0  0  0
 23 24  2  0  0  0  0
 25 26  1  0  0  0  0
 25 27  2  0  0  0  0
 26 28  2  0  0  0  0
 27 29  1  0  0  0  0
 28 30  1  0  0  0  0
 29 30  2  0  0  0  0
 31 32  1  0  0  0  0
 31 33  2  0  0  0  0
 32 34  2  0  0  0  0
 33 35  1  0  0  0  0
 34 36  1  0  0  0  0
 35 36  2  0  0  0  0
 37 38  1  0  0  0  0
 37 39  1  0  0  0  0
 34 38  1  0  0  0  0
 30 38  1  0  0  0  0
 23 38  1  0  0  0  0
 13 39  1  0  0  0  0
  9 39  1  0  0  0  0
  3 39  1  0  0  0  0
 37 40  1  0  0  0  0
 37 41  1  0  0  0  0
 41 42  3  0  0  0  0
 40 43  1  0  0  0  0
 43 44  2  0  0  0  0
 43 45  1  0  0  0  0
 45 46  1  0  0  0  0
 45 47  1  0  0  0  0
 45 48  1  0  0  0  0
M  END
> <NMREDATA_VERSION>
1.1

> <NMREDATA_LEVEL>
0

> <NMREDATA_SOLVENT>
CD2Cl2

> <NMREDATA_TEMPERATURE>
243

> <NMREDATA_FORMULA>
C39H32F3O3P2Rh

> <NMREDATA_SMILES>
[O]#C[Rh](P(c1ccccc1)(c1ccccc1)c1ccccc1)(P(c1ccccc1)(c1ccccc1)c1ccccc1)OC(=O)C(F)(F)F

> <NMREDATA_ASSIGNMENT>
Rh37, -276.00, 37

> <NMREDATA_1D_103Rh>
-276.00, L=Rh37

$$$$

  ACD/LABS03112411192D

 35 33  0  0  0  0  0  0  0  0  2 V2000
    9.9189  -16.5113    0.0000 O    0  0  0  0  0  0  0  0  0  0  0  0
    8.6049  -16.5113    0.0000 C    0  0  0  0  0  0  0  0  0  0  0  0
    7.9480  -15.3734    0.0000 C    0  0  0  0  0  0  0  0  0  0  0  0
    6.6340  -15.3734    0.0000 P    0  0  0  0  0  0  0  0  0  0  0  0
    5.9770  -16.5113    0.0000 C    0  0  0  0  0  0  0  0  0  0  0  0
    6.6340  -17.6493    0.0000 C    0  0  0  0  0  0  0  0  0  0  0  0
    5.9770  -18.7872    0.0000 C    0  0  0  0  0  0  0  0  0  0  0  0
    6.6340  -19.9251    0.0000 C    0  0  0  0  0  0  0  0  0  0  0  0
    5.9770  -14.2354    0.0000 C    0  0  0  0  0  0  0  0  0  0  0  0
    6.6340  -13.0975    0.0000 C    0  0  0  0  0  0  0  0  0  0  0  0
    5.9770  -11.9596    0.0000 C    0  0  0  0  0  0  0  0  0  0  0  0
    6.6340  -10.8216    0.0000 C    0  0  0  0  0  0  0  0  0  0  0  0
   10.5759  -17.6493    0.0000 Rh   0  3  0  0  0  0  0  0  0  0  0  0
    9.9189  -18.7872    0.0000 C    0  0  0  0  0  0  0  0  0  0  0  0
    9.2619  -19.9251    0.0000 O    0  0  0  0  0  0  0  0  0  0  0  0
   11.8899  -17.6493    0.0000 O    0  0  0  0  0  0  0  0  0  0  0  0
   12.5469  -16.5113    0.0000 C    0  0  0  0  0  0  0  0  0  0  0  0
   13.8608  -16.5113    0.0000 C    0  0  0  0  0  0  0  0  0  0  0  0
   14.5178  -15.3734    0.0000 P    0  0  0  0  0  0  0  0  0  0  0  0
   13.8608  -14.2354    0.0000 C    0  0  0  0  0  0  0  0  0  0  0  0
   14.5178  -13.0975    0.0000 C    0  0  0  0  0  0  0  0  0  0  0  0
   13.8608  -11.9596    0.0000 C    0  0  0  0  0  0  0  0  0  0  0  0
   14.5178  -10.8216    0.0000 C    0  0  0  0  0  0  0  0  0  0  0  0
   15.8318  -15.3734    0.0000 C    0  0  0  0  0  0  0  0  0  0  0  0
   16.4888  -16.5113    0.0000 C    0  0  0  0  0  0  0  0  0  0  0  0
   17.8028  -16.5113    0.0000 C    0  0  0  0  0  0  0  0  0  0  0  0
   18.4598  -17.6493    0.0000 C    0  0  0  0  0  0  0  0  0  0  0  0
   24.3727  -13.8592    0.0000 S    0  0  0  0  0  0  0  0  0  0  0  0
   25.0777  -12.6380    0.0000 O    0  0  0  0  0  0  0  0  0  0  0  0
   25.5939  -14.5642    0.0000 O    0  0  0  0  0  0  0  0  0  0  0  0
   23.6676  -15.0804    0.0000 C    0  0  0  0  0  0  0  0  0  0  0  0
   22.4464  -14.3753    0.0000 F    0  0  0  0  0  0  0  0  0  0  0  0
   24.8888  -15.7854    0.0000 F    0  0  0  0  0  0  0  0  0  0  0  0
   22.9625  -16.3016    0.0000 F    0  0  0  0  0  0  0  0  0  0  0  0
   23.1515  -13.1541    0.0000 O    0  5  0  0  0  0  0  0  0  0  0  0
  1  2  1  0  0  0  0
  2  3  1  0  0  0  0
  3  4  1  0  0  0  0
  4  5  1  0  0  0  0
  5  6  1  0  0  0  0
  6  7  1  0  0  0  0
  7  8  1  0  0  0  0
  4  9  1  0  0  0  0
  9 10  1  0  0  0  0
 10 11  1  0  0  0  0
 11 12  1  0  0  0  0
 13 14  1  0  0  0  0
 14 15  3  0  0  0  0
 13 16  1  0  0  0  0
 16 17  1  0  0  0  0
 17 18  1  0  0  0  0
 18 19  1  0  0  0  0
 19 20  1  0  0  0  0
 20 21  1  0  0  0  0
 21 22  1  0  0  0  0
 22 23  1  0  0  0  0
 19 24  1  0  0  0  0
 24 25  1  0  0  0  0
 25 26  1  0  0  0  0
 26 27  1  0  0  0  0
  1 13  1  0  0  0  0
 28 29  2  0  0  0  0
 28 30  2  0  0  0  0
 28 31  1  0  0  0  0
 31 32  1  0  0  0  0
 31 33  1  0  0  0  0
 31 34  1  0  0  0  0
 28 35  1  0  0  0  0
M  END
> <NMREDATA_VERSION>
1.1

> <NMREDATA_LEVEL>
0

> <NMREDATA_SOLVENT>
DCCl3

> <NMREDATA_FORMULA>
C22H45F3O6P2RhS

> <NMREDATA_SMILES>
FC(S(=O)(=O)O)(F)F.CCCCP(CCCC)CCO[Rh](C#[O])OCCP(CCCC)CCCC

> <NMREDATA_ASSIGNMENT>
Rh13, -526.00, 13

> <NMREDATA_1D_103Rh>
-526.00, L=Rh13

$$$$

  ACD/LABS03112411222D

 42 47  0  0  0  0  0  0  0  0  1 V2000
   17.5605  -10.7442    0.0000 C    0  0  0  0  0  0  0  0  0  0  0  0
   17.5605  -12.0742    0.0000 C    0  0  0  0  0  0  0  0  0  0  0  0
   16.4086  -10.0792    0.0000 C    0  0  0  0  0  0  0  0  0  0  0  0
   16.4086  -12.7392    0.0000 C    0  0  0  0  0  0  0  0  0  0  0  0
   15.2568  -10.7442    0.0000 C    0  0  0  0  0  0  0  0  0  0  0  0
   15.2568  -12.0742    0.0000 C    0  0  0  0  0  0  0  0  0  0  0  0
   20.1885  -12.9074    0.0000 C    0  0  0  0  0  0  0  0  0  0  0  0
   20.1885  -14.2374    0.0000 C    0  0  0  0  0  0  0  0  0  0  0  0
   19.0366  -12.2424    0.0000 C    0  0  0  0  0  0  0  0  0  0  0  0
   19.0366  -14.9024    0.0000 C    0  0  0  0  0  0  0  0  0  0  0  0
   17.8848  -12.9074    0.0000 C    0  0  0  0  0  0  0  0  0  0  0  0
   17.8848  -14.2374    0.0000 C    0  0  0  0  0  0  0  0  0  0  0  0
   18.7623  -15.8398    0.0000 C    0  0  0  0  0  0  0  0  0  0  0  0
   18.7623  -17.1698    0.0000 C    0  0  0  0  0  0  0  0  0  0  0  0
   17.6104  -15.1748    0.0000 C    0  0  0  0  0  0  0  0  0  0  0  0
   17.6104  -17.8348    0.0000 C    0  0  0  0  0  0  0  0  0  0  0  0
   16.4586  -15.8398    0.0000 C    0  0  0  0  0  0  0  0  0  0  0  0
   16.4586  -17.1698    0.0000 C    0  0  0  0  0  0  0  0  0  0  0  0
   12.5450  -18.5960    0.0000 C    0  0  0  0  0  0  0  0  0  0  0  0
   12.5450  -19.9260    0.0000 C    0  0  0  0  0  0  0  0  0  0  0  0
   11.3931  -17.9310    0.0000 C    0  0  0  0  0  0  0  0  0  0  0  0
   11.3931  -20.5910    0.0000 C    0  0  0  0  0  0  0  0  0  0  0  0
   10.2413  -18.5960    0.0000 C    0  0  0  0  0  0  0  0  0  0  0  0
   10.2413  -19.9260    0.0000 C    0  0  0  0  0  0  0  0  0  0  0  0
    9.4363  -18.0832    0.0000 C    0  0  0  0  0  0  0  0  0  0  0  0
    9.4363  -19.4132    0.0000 C    0  0  0  0  0  0  0  0  0  0  0  0
    8.2844  -17.4182    0.0000 C    0  0  0  0  0  0  0  0  0  0  0  0
    8.2844  -20.0782    0.0000 C    0  0  0  0  0  0  0  0  0  0  0  0
    7.1326  -18.0832    0.0000 C    0  0  0  0  0  0  0  0  0  0  0  0
    7.1326  -19.4132    0.0000 C    0  0  0  0  0  0  0  0  0  0  0  0
    7.7698  -15.8078    0.0000 C    0  0  0  0  0  0  0  0  0  0  0  0
    7.7698  -17.1378    0.0000 C    0  0  0  0  0  0  0  0  0  0  0  0
    6.6179  -15.1428    0.0000 C    0  0  0  0  0  0  0  0  0  0  0  0
    6.6179  -17.8028    0.0000 C    0  0  0  0  0  0  0  0  0  0  0  0
    5.4661  -15.8078    0.0000 C    0  0  0  0  0  0  0  0  0  0  0  0
    5.4661  -17.1378    0.0000 C    0  0  0  0  0  0  0  0  0  0  0  0
   12.5469  -15.6075    0.0000 Rh   0  0  0  0  0  0  0  0  0  0  0  0
   14.6140  -14.7261    0.0000 P    0  0  0  0  0  0  0  0  0  0  0  0
   10.7041  -16.5849    0.0000 P    0  0  0  0  0  0  0  0  0  0  0  0
   11.5534  -14.2615    0.0000 F    0  0  0  0  0  0  0  0  0  0  0  0
   13.6045  -17.0496    0.0000 C    0  0  0  0  0  0  0  0  0  0  0  0
   15.0627  -18.4758    0.0000 O    0  0  0  0  0  0  0  0  0  0  0  0
  1  2  1  0  0  0  0
  1  3  2  0  0  0  0
  2  4  2  0  0  0  0
  3  5  1  0  0  0  0
  4  6  1  0  0  0  0
  5  6  2  0  0  0  0
  7  8  1  0  0  0  0
  7  9  2  0  0  0  0
  8 10  2  0  0  0  0
  9 11  1  0  0  0  0
 10 12  1  0  0  0  0
 11 12  2  0  0  0  0
 13 14  1  0  0  0  0
 13 15  2  0  0  0  0
 14 16  2  0  0  0  0
 15 17  1  0  0  0  0
 16 18  1  0  0  0  0
 17 18  2  0  0  0  0
 19 20  1  0  0  0  0
 19 21  2  0  0  0  0
 20 22  2  0  0  0  0
 21 23  1  0  0  0  0
 22 24  1  0  0  0  0
 23 24  2  0  0  0  0
 25 26  1  0  0  0  0
 25 27  2  0  0  0  0
 26 28  2  0  0  0  0
 27 29  1  0  0  0  0
 28 30  1  0  0  0  0
 29 30  2  0  0  0  0
 31 32  1  0  0  0  0
 31 33  2  0  0  0  0
 32 34  2  0  0  0  0
 33 35  1  0  0  0  0
 34 36  1  0  0  0  0
 35 36  2  0  0  0  0
 37 38  1  0  0  0  0
 37 39  1  0  0  0  0
 31 39  1  0  0  0  0
 25 39  1  0  0  0  0
 21 39  1  0  0  0  0
 17 38  1  0  0  0  0
 11 38  1  0  0  0  0
  4 38  1  0  0  0  0
 37 40  1  0  0  0  0
 37 41  1  0  0  0  0
 41 42  3  0  0  0  0
M  END
> <NMREDATA_VERSION>
1.1

> <NMREDATA_LEVEL>
0

> <NMREDATA_SOLVENT>
DCCl3

> <NMREDATA_TEMPERATURE>
241

> <NMREDATA_FORMULA>
C37H32FOP2Rh

> <NMREDATA_SMILES>
[O]#C[Rh](P(c1ccccc1)(c1ccccc1)c1ccccc1)(P(c1ccccc1)(c1ccccc1)c1ccccc1)F

> <NMREDATA_ASSIGNMENT>
Rh37, -148.00, 37

> <NMREDATA_1D_103Rh>
-148.00, L=Rh37

$$$$

  ACD/LABS03112411362D

 42 47  0  0  0  0  0  0  0  0  1 V2000
   16.8234  -10.5679    0.0000 C    0  0  0  0  0  0  0  0  0  0  0  0
   16.8234  -11.8979    0.0000 C    0  0  0  0  0  0  0  0  0  0  0  0
   15.6715   -9.9029    0.0000 C    0  0  0  0  0  0  0  0  0  0  0  0
   15.6715  -12.5629    0.0000 C    0  0  0  0  0  0  0  0  0  0  0  0
   14.5197  -10.5679    0.0000 C    0  0  0  0  0  0  0  0  0  0  0  0
   14.5197  -11.8979    0.0000 C    0  0  0  0  0  0  0  0  0  0  0  0
   18.4899  -13.2119    0.0000 C    0  0  0  0  0  0  0  0  0  0  0  0
   18.4899  -14.5419    0.0000 C    0  0  0  0  0  0  0  0  0  0  0  0
   17.3380  -12.5469    0.0000 C    0  0  0  0  0  0  0  0  0  0  0  0
   17.3380  -15.2069    0.0000 C    0  0  0  0  0  0  0  0  0  0  0  0
   16.1862  -13.2119    0.0000 C    0  0  0  0  0  0  0  0  0  0  0  0
   16.1862  -14.5419    0.0000 C    0  0  0  0  0  0  0  0  0  0  0  0
   17.9611  -16.8814    0.0000 C    0  0  0  0  0  0  0  0  0  0  0  0
   17.9611  -18.2114    0.0000 C    0  0  0  0  0  0  0  0  0  0  0  0
   16.8092  -16.2164    0.0000 C    0  0  0  0  0  0  0  0  0  0  0  0
   16.8092  -18.8764    0.0000 C    0  0  0  0  0  0  0  0  0  0  0  0
   15.6574  -16.8814    0.0000 C    0  0  0  0  0  0  0  0  0  0  0  0
   15.6574  -18.2114    0.0000 C    0  0  0  0  0  0  0  0  0  0  0  0
   11.3271  -19.0607    0.0000 C    0  0  0  0  0  0  0  0  0  0  0  0
   11.3271  -20.3907    0.0000 C    0  0  0  0  0  0  0  0  0  0  0  0
   10.1752  -18.3957    0.0000 C    0  0  0  0  0  0  0  0  0  0  0  0
   10.1752  -21.0557    0.0000 C    0  0  0  0  0  0  0  0  0  0  0  0
    9.0235  -19.0607    0.0000 C    0  0  0  0  0  0  0  0  0  0  0  0
    9.0235  -20.3907    0.0000 C    0  0  0  0  0  0  0  0  0  0  0  0
    8.2505  -18.4357    0.0000 C    0  0  0  0  0  0  0  0  0  0  0  0
    8.2505  -19.7657    0.0000 C    0  0  0  0  0  0  0  0  0  0  0  0
    7.0986  -17.7707    0.0000 C    0  0  0  0  0  0  0  0  0  0  0  0
    7.0986  -20.4307    0.0000 C    0  0  0  0  0  0  0  0  0  0  0  0
    5.9468  -18.4357    0.0000 C    0  0  0  0  0  0  0  0  0  0  0  0
    5.9468  -19.7657    0.0000 C    0  0  0  0  0  0  0  0  0  0  0  0
    7.2570  -16.0161    0.0000 C    0  0  0  0  0  0  0  0  0  0  0  0
    7.2570  -17.3461    0.0000 C    0  0  0  0  0  0  0  0  0  0  0  0
    6.1051  -15.3511    0.0000 C    0  0  0  0  0  0  0  0  0  0  0  0
    6.1051  -18.0111    0.0000 C    0  0  0  0  0  0  0  0  0  0  0  0
    4.9533  -16.0161    0.0000 C    0  0  0  0  0  0  0  0  0  0  0  0
    4.9533  -17.3461    0.0000 C    0  0  0  0  0  0  0  0  0  0  0  0
   11.7136  -15.7196    0.0000 Rh   0  0  0  0  0  0  0  0  0  0  0  0
   13.9249  -14.4698    0.0000 P    0  0  0  0  0  0  0  0  0  0  0  0
   10.0631  -16.6971    0.0000 P    0  0  0  0  0  0  0  0  0  0  0  0
   10.9284  -14.3736    0.0000 Cl   0  0  0  0  0  0  0  0  0  0  0  0
   12.6430  -17.1618    0.0000 C    0  0  0  0  0  0  0  0  0  0  0  0
   13.3481  -18.6040    0.0000 O    0  0  0  0  0  0  0  0  0  0  0  0
  1  2  1  0  0  0  0
  1  3  2  0  0  0  0
  2  4  2  0  0  0  0
  3  5  1  0  0  0  0
  4  6  1  0  0  0  0
  5  6  2  0  0  0  0
  7  8  1  0  0  0  0
  7  9  2  0  0  0  0
  8 10  2  0  0  0  0
  9 11  1  0  0  0  0
 10 12  1  0  0  0  0
 11 12  2  0  0  0  0
 13 14  1  0  0  0  0
 13 15  2  0  0  0  0
 14 16  2  0  0  0  0
 15 17  1  0  0  0  0
 16 18  1  0  0  0  0
 17 18  2  0  0  0  0
 19 20  1  0  0  0  0
 19 21  2  0  0  0  0
 20 22  2  0  0  0  0
 21 23  1  0  0  0  0
 22 24  1  0  0  0  0
 23 24  2  0  0  0  0
 25 26  1  0  0  0  0
 25 27  2  0  0  0  0
 26 28  2  0  0  0  0
 27 29  1  0  0  0  0
 28 30  1  0  0  0  0
 29 30  2  0  0  0  0
 31 32  1  0  0  0  0
 31 33  2  0  0  0  0
 32 34  2  0  0  0  0
 33 35  1  0  0  0  0
 34 36  1  0  0  0  0
 35 36  2  0  0  0  0
 37 38  1  0  0  0  0
 37 39  1  0  0  0  0
 31 39  1  0  0  0  0
 25 39  1  0  0  0  0
 21 39  1  0  0  0  0
 17 38  1  0  0  0  0
 12 38  1  0  0  0  0
  4 38  1  0  0  0  0
 37 40  1  0  0  0  0
 37 41  1  0  0  0  0
 41 42  3  0  0  0  0
M  END
> <NMREDATA_VERSION>
1.1

> <NMREDATA_LEVEL>
0

> <NMREDATA_SOLVENT>
DCCl3

> <NMREDATA_TEMPERATURE>
300

> <NMREDATA_FORMULA>
C37H32ClOP2Rh

> <NMREDATA_SMILES>
[O]#C[Rh](P(c1ccccc1)(c1ccccc1)c1ccccc1)(P(c1ccccc1)(c1ccccc1)c1ccccc1)Cl

> <NMREDATA_ASSIGNMENT>
Rh37, -368.00, 37

> <NMREDATA_1D_103Rh>
-368.00, L=Rh37

$$$$

  ACD/LABS03112411362D

 42 47  0  0  0  0  0  0  0  0  1 V2000
   16.8234  -10.5679    0.0000 C    0  0  0  0  0  0  0  0  0  0  0  0
   16.8234  -11.8979    0.0000 C    0  0  0  0  0  0  0  0  0  0  0  0
   15.6715   -9.9029    0.0000 C    0  0  0  0  0  0  0  0  0  0  0  0
   15.6715  -12.5629    0.0000 C    0  0  0  0  0  0  0  0  0  0  0  0
   14.5197  -10.5679    0.0000 C    0  0  0  0  0  0  0  0  0  0  0  0
   14.5197  -11.8979    0.0000 C    0  0  0  0  0  0  0  0  0  0  0  0
   18.4899  -13.2119    0.0000 C    0  0  0  0  0  0  0  0  0  0  0  0
   18.4899  -14.5419    0.0000 C    0  0  0  0  0  0  0  0  0  0  0  0
   17.3380  -12.5469    0.0000 C    0  0  0  0  0  0  0  0  0  0  0  0
   17.3380  -15.2069    0.0000 C    0  0  0  0  0  0  0  0  0  0  0  0
   16.1862  -13.2119    0.0000 C    0  0  0  0  0  0  0  0  0  0  0  0
   16.1862  -14.5419    0.0000 C    0  0  0  0  0  0  0  0  0  0  0  0
   17.9611  -16.8814    0.0000 C    0  0  0  0  0  0  0  0  0  0  0  0
   17.9611  -18.2114    0.0000 C    0  0  0  0  0  0  0  0  0  0  0  0
   16.8092  -16.2164    0.0000 C    0  0  0  0  0  0  0  0  0  0  0  0
   16.8092  -18.8764    0.0000 C    0  0  0  0  0  0  0  0  0  0  0  0
   15.6574  -16.8814    0.0000 C    0  0  0  0  0  0  0  0  0  0  0  0
   15.6574  -18.2114    0.0000 C    0  0  0  0  0  0  0  0  0  0  0  0
   11.3271  -19.0607    0.0000 C    0  0  0  0  0  0  0  0  0  0  0  0
   11.3271  -20.3907    0.0000 C    0  0  0  0  0  0  0  0  0  0  0  0
   10.1752  -18.3957    0.0000 C    0  0  0  0  0  0  0  0  0  0  0  0
   10.1752  -21.0557    0.0000 C    0  0  0  0  0  0  0  0  0  0  0  0
    9.0235  -19.0607    0.0000 C    0  0  0  0  0  0  0  0  0  0  0  0
    9.0235  -20.3907    0.0000 C    0  0  0  0  0  0  0  0  0  0  0  0
    8.2505  -18.4357    0.0000 C    0  0  0  0  0  0  0  0  0  0  0  0
    8.2505  -19.7657    0.0000 C    0  0  0  0  0  0  0  0  0  0  0  0
    7.0986  -17.7707    0.0000 C    0  0  0  0  0  0  0  0  0  0  0  0
    7.0986  -20.4307    0.0000 C    0  0  0  0  0  0  0  0  0  0  0  0
    5.9468  -18.4357    0.0000 C    0  0  0  0  0  0  0  0  0  0  0  0
    5.9468  -19.7657    0.0000 C    0  0  0  0  0  0  0  0  0  0  0  0
    7.2570  -16.0161    0.0000 C    0  0  0  0  0  0  0  0  0  0  0  0
    7.2570  -17.3461    0.0000 C    0  0  0  0  0  0  0  0  0  0  0  0
    6.1051  -15.3511    0.0000 C    0  0  0  0  0  0  0  0  0  0  0  0
    6.1051  -18.0111    0.0000 C    0  0  0  0  0  0  0  0  0  0  0  0
    4.9533  -16.0161    0.0000 C    0  0  0  0  0  0  0  0  0  0  0  0
    4.9533  -17.3461    0.0000 C    0  0  0  0  0  0  0  0  0  0  0  0
   11.7136  -15.7196    0.0000 Rh   0  0  0  0  0  0  0  0  0  0  0  0
   13.9249  -14.4698    0.0000 P    0  0  0  0  0  0  0  0  0  0  0  0
   10.0631  -16.6971    0.0000 P    0  0  0  0  0  0  0  0  0  0  0  0
   10.9284  -14.3736    0.0000 Cl   0  0  0  0  0  0  0  0  0  0  0  0
   12.6430  -17.1618    0.0000 C    0  0  0  0  0  0  0  0  0  0  0  0
   13.3481  -18.6040    0.0000 O    0  0  0  0  0  0  0  0  0  0  0  0
  1  2  1  0  0  0  0
  1  3  2  0  0  0  0
  2  4  2  0  0  0  0
  3  5  1  0  0  0  0
  4  6  1  0  0  0  0
  5  6  2  0  0  0  0
  7  8  1  0  0  0  0
  7  9  2  0  0  0  0
  8 10  2  0  0  0  0
  9 11  1  0  0  0  0
 10 12  1  0  0  0  0
 11 12  2  0  0  0  0
 13 14  1  0  0  0  0
 13 15  2  0  0  0  0
 14 16  2  0  0  0  0
 15 17  1  0  0  0  0
 16 18  1  0  0  0  0
 17 18  2  0  0  0  0
 19 20  1  0  0  0  0
 19 21  2  0  0  0  0
 20 22  2  0  0  0  0
 21 23  1  0  0  0  0
 22 24  1  0  0  0  0
 23 24  2  0  0  0  0
 25 26  1  0  0  0  0
 25 27  2  0  0  0  0
 26 28  2  0  0  0  0
 27 29  1  0  0  0  0
 28 30  1  0  0  0  0
 29 30  2  0  0  0  0
 31 32  1  0  0  0  0
 31 33  2  0  0  0  0
 32 34  2  0  0  0  0
 33 35  1  0  0  0  0
 34 36  1  0  0  0  0
 35 36  2  0  0  0  0
 37 38  1  0  0  0  0
 37 39  1  0  0  0  0
 31 39  1  0  0  0  0
 25 39  1  0  0  0  0
 21 39  1  0  0  0  0
 17 38  1  0  0  0  0
 12 38  1  0  0  0  0
  4 38  1  0  0  0  0
 37 40  1  0  0  0  0
 37 41  1  0  0  0  0
 41 42  3  0  0  0  0
M  END
> <NMREDATA_VERSION>
1.1

> <NMREDATA_LEVEL>
0

> <NMREDATA_SOLVENT>
DCCl3

> <NMREDATA_TEMPERATURE>
247

> <NMREDATA_FORMULA>
C37H32ClOP2Rh

> <NMREDATA_SMILES>
[O]#C[Rh](P(c1ccccc1)(c1ccccc1)c1ccccc1)(P(c1ccccc1)(c1ccccc1)c1ccccc1)Cl

> <NMREDATA_ASSIGNMENT>
Rh37, -387.00, 37

> <NMREDATA_1D_103Rh>
-387.00, L=Rh37

$$$$

  ACD/LABS03112411372D

 22 23  0  0  0  0  0  0  0  0  1 V2000
   17.9611  -16.8814    0.0000 C    0  0  0  0  0  0  0  0  0  0  0  0
   17.9611  -18.2114    0.0000 C    0  0  0  0  0  0  0  0  0  0  0  0
   16.8092  -16.2164    0.0000 C    0  0  0  0  0  0  0  0  0  0  0  0
   16.8092  -18.8764    0.0000 C    0  0  0  0  0  0  0  0  0  0  0  0
   15.6574  -16.8814    0.0000 C    0  0  0  0  0  0  0  0  0  0  0  0
   15.6574  -18.2114    0.0000 C    0  0  0  0  0  0  0  0  0  0  0  0
    7.2570  -16.0161    0.0000 C    0  0  0  0  0  0  0  0  0  0  0  0
    7.2570  -17.3461    0.0000 C    0  0  0  0  0  0  0  0  0  0  0  0
    6.1051  -15.3511    0.0000 C    0  0  0  0  0  0  0  0  0  0  0  0
    6.1051  -18.0111    0.0000 C    0  0  0  0  0  0  0  0  0  0  0  0
    4.9533  -16.0161    0.0000 C    0  0  0  0  0  0  0  0  0  0  0  0
    4.9533  -17.3461    0.0000 C    0  0  0  0  0  0  0  0  0  0  0  0
   11.7136  -15.7196    0.0000 Rh   0  0  0  0  0  0  0  0  0  0  0  0
   13.9249  -14.4698    0.0000 P    0  0  0  0  0  0  0  0  0  0  0  0
   10.0631  -16.6971    0.0000 P    0  0  0  0  0  0  0  0  0  0  0  0
   10.9284  -14.3736    0.0000 Cl   0  0  0  0  0  0  0  0  0  0  0  0
   12.6430  -17.1618    0.0000 C    0  0  0  0  0  0  0  0  0  0  0  0
   13.3481  -18.6040    0.0000 O    0  0  0  0  0  0  0  0  0  0  0  0
    8.8774  -18.0912    0.0000 C    0  0  0  0  0  0  0  0  0  0  0  0
   10.5118  -18.4918    0.0000 C    0  0  0  0  0  0  0  0  0  0  0  0
   16.0081  -14.4698    0.0000 C    0  0  0  0  0  0  0  0  0  0  0  0
   13.9730  -13.0436    0.0000 C    0  0  0  0  0  0  0  0  0  0  0  0
  1  2  1  0  0  0  0
  1  3  2  0  0  0  0
  2  4  2  0  0  0  0
  3  5  1  0  0  0  0
  4  6  1  0  0  0  0
  5  6  2  0  0  0  0
  7  8  1  0  0  0  0
  7  9  2  0  0  0  0
  8 10  2  0  0  0  0
  9 11  1  0  0  0  0
 10 12  1  0  0  0  0
 11 12  2  0  0  0  0
 13 14  1  0  0  0  0
 13 15  1  0  0  0  0
  7 15  1  0  0  0  0
  5 14  1  0  0  0  0
 13 16  1  0  0  0  0
 13 17  1  0  0  0  0
 17 18  3  0  0  0  0
 15 19  1  0  0  0  0
 15 20  1  0  0  0  0
 14 21  1  0  0  0  0
 14 22  1  0  0  0  0
M  END
> <NMREDATA_VERSION>
1.1

> <NMREDATA_LEVEL>
0

> <NMREDATA_SOLVENT>
C6D6

> <NMREDATA_TEMPERATURE>
297

> <NMREDATA_FORMULA>
C17H24ClOP2Rh

> <NMREDATA_SMILES>
[O]#C[Rh](P(c1ccccc1)(C)C)(P(c1ccccc1)(C)C)Cl

> <NMREDATA_ASSIGNMENT>
Rh13, -405.00, 13

> <NMREDATA_1D_103Rh>
-405.00, L=Rh13

$$$$

  ACD/LABS03112411382D

 12 11  0  0  0  0  0  0  0  0  1 V2000
   11.7136  -15.7196    0.0000 Rh   0  0  0  0  0  0  0  0  0  0  0  0
   13.9249  -14.4698    0.0000 P    0  0  0  0  0  0  0  0  0  0  0  0
   10.0631  -16.6971    0.0000 P    0  0  0  0  0  0  0  0  0  0  0  0
   10.9284  -14.3736    0.0000 Cl   0  0  0  0  0  0  0  0  0  0  0  0
   12.6430  -17.1618    0.0000 C    0  0  0  0  0  0  0  0  0  0  0  0
   13.3481  -18.6040    0.0000 O    0  0  0  0  0  0  0  0  0  0  0  0
    8.8774  -18.0912    0.0000 C    0  0  0  0  0  0  0  0  0  0  0  0
   10.5118  -18.4918    0.0000 C    0  0  0  0  0  0  0  0  0  0  0  0
   16.0081  -14.4698    0.0000 C    0  0  0  0  0  0  0  0  0  0  0  0
   13.9730  -13.0436    0.0000 C    0  0  0  0  0  0  0  0  0  0  0  0
    8.1723  -16.3606    0.0000 C    0  0  0  0  0  0  0  0  0  0  0  0
   14.9505  -15.7837    0.0000 C    0  0  0  0  0  0  0  0  0  0  0  0
  1  2  1  0  0  0  0
  1  3  1  0  0  0  0
  1  4  1  0  0  0  0
  1  5  1  0  0  0  0
  5  6  3  0  0  0  0
  3  7  1  0  0  0  0
  3  8  1  0  0  0  0
  2  9  1  0  0  0  0
  2 10  1  0  0  0  0
  3 11  1  0  0  0  0
  2 12  1  0  0  0  0
M  END
> <NMREDATA_VERSION>
1.1

> <NMREDATA_LEVEL>
0

> <NMREDATA_SOLVENT>
C6D6

> <NMREDATA_FORMULA>
C7H20ClOP2Rh

> <NMREDATA_SMILES>
[O]#C[Rh](P(C)(C)C)(P(C)(C)C)Cl

> <NMREDATA_ASSIGNMENT>
Rh1, -415.00, 1

> <NMREDATA_1D_103Rh>
-415.00, L=Rh1

$$$$

  ACD/LABS03112411572D

 63 70  0  0  0  0  0  0  0  0  1 V2000
   17.5440  -23.0633    0.0000 P    0  0  0  0  0  0  0  0  0  0  0  0
   16.5269  -22.1990    0.0000 C    0  0  0  0  0  0  0  0  0  0  0  0
   15.2221  -21.9579    0.0000 P    0  0  0  0  0  0  0  0  0  0  0  0
   18.7951  -22.6174    0.0000 C    0  0  0  0  0  0  0  0  0  0  0  0
   19.8122  -23.4817    0.0000 C    0  0  0  0  0  0  0  0  0  0  0  0
   19.0407  -21.3050    0.0000 C    0  0  0  0  0  0  0  0  0  0  0  0
   21.0633  -23.0358    0.0000 C    0  0  0  0  0  0  0  0  0  0  0  0
   20.2916  -20.8596    0.0000 C    0  0  0  0  0  0  0  0  0  0  0  0
   21.3040  -21.7307    0.0000 C    0  0  0  0  0  0  0  0  0  0  0  0
   17.5287  -24.3851    0.0000 C    0  0  0  0  0  0  0  0  0  0  0  0
   16.3728  -25.0389    0.0000 C    0  0  0  0  0  0  0  0  0  0  0  0
   18.6765  -25.0581    0.0000 C    0  0  0  0  0  0  0  0  0  0  0  0
   16.3646  -26.3661    0.0000 C    0  0  0  0  0  0  0  0  0  0  0  0
   18.6639  -26.3929    0.0000 C    0  0  0  0  0  0  0  0  0  0  0  0
   17.5080  -27.0467    0.0000 C    0  0  0  0  0  0  0  0  0  0  0  0
   15.6742  -20.7137    0.0000 C    0  0  0  0  0  0  0  0  0  0  0  0
   14.8216  -19.6882    0.0000 C    0  0  0  0  0  0  0  0  0  0  0  0
   16.9878  -20.4784    0.0000 C    0  0  0  0  0  0  0  0  0  0  0  0
   15.2857  -18.4408    0.0000 C    0  0  0  0  0  0  0  0  0  0  0  0
   17.4478  -19.2381    0.0000 C    0  0  0  0  0  0  0  0  0  0  0  0
   16.5954  -18.2134    0.0000 C    0  0  0  0  0  0  0  0  0  0  0  0
   14.7701  -23.2020    0.0000 C    0  0  0  0  0  0  0  0  0  0  0  0
   15.6225  -24.2267    0.0000 C    0  0  0  0  0  0  0  0  0  0  0  0
   13.4609  -23.4297    0.0000 C    0  0  0  0  0  0  0  0  0  0  0  0
   15.1702  -25.4714    0.0000 C    0  0  0  0  0  0  0  0  0  0  0  0
   13.0041  -24.6820    0.0000 C    0  0  0  0  0  0  0  0  0  0  0  0
   13.8489  -25.7023    0.0000 C    0  0  0  0  0  0  0  0  0  0  0  0
   10.8836  -18.5619    0.0000 P    0  0  0  0  0  0  0  0  0  0  0  0
    9.9271  -19.4740    0.0000 C    0  0  0  0  0  0  0  0  0  0  0  0
    7.0489  -19.1545    0.0000 P    0  0  0  0  0  0  0  0  0  0  0  0
   11.6751  -17.4933    0.0000 C    0  0  0  0  0  0  0  0  0  0  0  0
   12.9982  -17.6322    0.0000 C    0  0  0  0  0  0  0  0  0  0  0  0
   11.1404  -16.2724    0.0000 C    0  0  0  0  0  0  0  0  0  0  0  0
   13.7895  -16.5629    0.0000 C    0  0  0  0  0  0  0  0  0  0  0  0
   11.9241  -15.1986    0.0000 C    0  0  0  0  0  0  0  0  0  0  0  0
   13.2548  -15.3420    0.0000 C    0  0  0  0  0  0  0  0  0  0  0  0
    9.9639  -17.6009    0.0000 C    0  0  0  0  0  0  0  0  0  0  0  0
   10.3349  -16.3194    0.0000 C    0  0  0  0  0  0  0  0  0  0  0  0
    8.6729  -17.9206    0.0000 C    0  0  0  0  0  0  0  0  0  0  0  0
    9.4146  -15.3582    0.0000 C    0  0  0  0  0  0  0  0  0  0  0  0
    7.7526  -16.9593    0.0000 C    0  0  0  0  0  0  0  0  0  0  0  0
    8.1241  -15.6781    0.0000 C    0  0  0  0  0  0  0  0  0  0  0  0
    6.2655  -20.2278    0.0000 C    0  0  0  0  0  0  0  0  0  0  0  0
    6.7921  -21.4440    0.0000 C    0  0  0  0  0  0  0  0  0  0  0  0
    4.9349  -20.0844    0.0000 C    0  0  0  0  0  0  0  0  0  0  0  0
    6.0085  -22.5177    0.0000 C    0  0  0  0  0  0  0  0  0  0  0  0
    4.1507  -21.1579    0.0000 C    0  0  0  0  0  0  0  0  0  0  0  0
    4.6854  -22.3788    0.0000 C    0  0  0  0  0  0  0  0  0  0  0  0
    6.3123  -18.0527    0.0000 C    0  0  0  0  0  0  0  0  0  0  0  0
    6.8960  -16.8641    0.0000 C    0  0  0  0  0  0  0  0  0  0  0  0
    4.9838  -18.1361    0.0000 C    0  0  0  0  0  0  0  0  0  0  0  0
    6.1640  -15.7555    0.0000 C    0  0  0  0  0  0  0  0  0  0  0  0
    4.2440  -17.0223    0.0000 C    0  0  0  0  0  0  0  0  0  0  0  0
    4.8351  -15.8386    0.0000 C    0  0  0  0  0  0  0  0  0  0  0  0
   12.5002  -20.9596    0.0000 Rh   0  0  0  0  0  0  0  0  0  0  0  0
   12.4525  -22.2844    0.0000 Cl   0  0  0  0  0  0  0  0  0  0  0  0
   13.3178  -19.9163    0.0000 C    0  0  0  0  0  0  0  0  0  0  0  0
   14.1353  -18.8722    0.0000 O    0  0  0  0  0  0  0  0  0  0  0  0
   11.2348  -21.3253    0.0000 Ru   0  0  0  0  0  0  0  0  0  0  0  0
   10.1313  -20.5755    0.0000 C    0  0  0  0  0  0  0  0  0  0  0  0
   10.9067  -22.6207    0.0000 C    0  0  0  0  0  0  0  0  0  0  0  0
    9.0274  -19.8253    0.0000 O    0  0  0  0  0  0  0  0  0  0  0  0
   10.5746  -23.9042    0.0000 O    0  0  0  0  0  0  0  0  0  0  0  0
  1  2  1  0  0  0  0
  2  3  1  0  0  0  0
  4  5  1  0  0  0  0
  4  6  2  0  0  0  0
  5  7  2  0  0  0  0
  6  8  1  0  0  0  0
  7  9  1  0  0  0  0
  8  9  2  0  0  0  0
  1  4  1  0  0  0  0
 10 11  1  0  0  0  0
 10 12  2  0  0  0  0
 11 13  2  0  0  0  0
 12 14  1  0  0  0  0
 13 15  1  0  0  0  0
 14 15  2  0  0  0  0
  1 10  1  0  0  0  0
 16 17  1  0  0  0  0
 16 18  2  0  0  0  0
 17 19  2  0  0  0  0
 18 20  1  0  0  0  0
 19 21  1  0  0  0  0
 20 21  2  0  0  0  0
  3 16  1  0  0  0  0
 22 23  1  0  0  0  0
 22 24  2  0  0  0  0
 23 25  2  0  0  0  0
 24 26  1  0  0  0  0
 25 27  1  0  0  0  0
 26 27  2  0  0  0  0
  3 22  1  0  0  0  0
 28 29  1  0  0  0  0
 29 30  1  0  0  0  0
 31 32  1  0  0  0  0
 31 33  2  0  0  0  0
 32 34  2  0  0  0  0
 33 35  1  0  0  0  0
 34 36  1  0  0  0  0
 35 36  2  0  0  0  0
 28 31  1  0  0  0  0
 37 38  1  0  0  0  0
 37 39  2  0  0  0  0
 38 40  2  0  0  0  0
 39 41  1  0  0  0  0
 40 42  1  0  0  0  0
 41 42  2  0  0  0  0
 28 37  1  0  0  0  0
 43 44  1  0  0  0  0
 43 45  2  0  0  0  0
 44 46  2  0  0  0  0
 45 47  1  0  0  0  0
 46 48  1  0  0  0  0
 47 48  2  0  0  0  0
 30 43  1  0  0  0  0
 49 50  1  0  0  0  0
 49 51  2  0  0  0  0
 50 52  2  0  0  0  0
 51 53  1  0  0  0  0
 52 54  1  0  0  0  0
 53 54  2  0  0  0  0
 30 49  1  0  0  0  0
 55 56  1  0  0  0  0
 55 57  1  0  0  0  0
 57 58  3  0  0  0  0
 28 55  1  0  0  0  0
  3 55  1  0  0  0  0
 59 60  1  0  0  0  0
 59 61  1  0  0  0  0
 60 62  3  0  0  0  0
 61 63  3  0  0  0  0
 55 59  1  0  0  0  0
M  END
> <NMREDATA_VERSION>
1.1

> <NMREDATA_LEVEL>
0

> <NMREDATA_FORMULA>
C53H46ClO3P4RhRu

> <NMREDATA_SMILES>
[O]#C[Ru]([Rh](P(c1ccccc1)(c1ccccc1)CP(c1ccccc1)c1ccccc1)(P(c1ccccc1)(c1ccccc1)CP(c1ccccc1)c1ccccc1)(C#[O])Cl)C#[O]

> <NMREDATA_ASSIGNMENT>
Rh55, 190.00, 55

> <NMREDATA_1D_103Rh>
190.00, L=Rh55

$$$$

  ACD/LABS03122417092D

 42 47  0  0  0  0  0  0  0  0  1 V2000
    8.8114  -13.6285    0.0000 C    0  0  0  0  0  0  0  0  0  0  0  0
    8.8114  -14.9585    0.0000 C    0  0  0  0  0  0  0  0  0  0  0  0
    7.6595  -12.9635    0.0000 C    0  0  0  0  0  0  0  0  0  0  0  0
    7.6595  -15.6235    0.0000 C    0  0  0  0  0  0  0  0  0  0  0  0
    6.5077  -13.6285    0.0000 C    0  0  0  0  0  0  0  0  0  0  0  0
    6.5077  -14.9585    0.0000 C    0  0  0  0  0  0  0  0  0  0  0  0
    5.4143  -13.2760    0.0000 C    0  0  0  0  0  0  0  0  0  0  0  0
    5.4143  -14.6060    0.0000 C    0  0  0  0  0  0  0  0  0  0  0  0
    4.2623  -12.6110    0.0000 C    0  0  0  0  0  0  0  0  0  0  0  0
    4.2623  -15.2710    0.0000 C    0  0  0  0  0  0  0  0  0  0  0  0
    3.1106  -13.2760    0.0000 C    0  0  0  0  0  0  0  0  0  0  0  0
    3.1106  -14.6060    0.0000 C    0  0  0  0  0  0  0  0  0  0  0  0
    7.8839   -9.4382    0.0000 Rh   0  0  0  0  0  0  0  0  0  0  0  0
    9.6305   -8.3486    0.0000 P    0  0  0  0  0  0  0  0  0  0  0  0
    6.8102  -10.6560    0.0000 P    0  0  0  0  0  0  0  0  0  0  0  0
   13.5705   -5.1998    0.0000 C    0  0  0  0  0  0  0  0  0  0  0  0
   13.5705   -6.5298    0.0000 C    0  0  0  0  0  0  0  0  0  0  0  0
   12.4186   -4.5348    0.0000 C    0  0  0  0  0  0  0  0  0  0  0  0
   12.4186   -7.1948    0.0000 C    0  0  0  0  0  0  0  0  0  0  0  0
   11.2668   -5.1998    0.0000 C    0  0  0  0  0  0  0  0  0  0  0  0
   11.2668   -6.5298    0.0000 C    0  0  0  0  0  0  0  0  0  0  0  0
   15.5575   -7.3791    0.0000 C    0  0  0  0  0  0  0  0  0  0  0  0
   15.5575   -8.7091    0.0000 C    0  0  0  0  0  0  0  0  0  0  0  0
   14.4056   -6.7141    0.0000 C    0  0  0  0  0  0  0  0  0  0  0  0
   14.4056   -9.3741    0.0000 C    0  0  0  0  0  0  0  0  0  0  0  0
   13.2538   -7.3791    0.0000 C    0  0  0  0  0  0  0  0  0  0  0  0
   13.2538   -8.7091    0.0000 C    0  0  0  0  0  0  0  0  0  0  0  0
   14.5480  -10.6480    0.0000 C    0  0  0  0  0  0  0  0  0  0  0  0
   14.5480  -11.9780    0.0000 C    0  0  0  0  0  0  0  0  0  0  0  0
   13.3961   -9.9830    0.0000 C    0  0  0  0  0  0  0  0  0  0  0  0
   13.3961  -12.6430    0.0000 C    0  0  0  0  0  0  0  0  0  0  0  0
   12.2443  -10.6480    0.0000 C    0  0  0  0  0  0  0  0  0  0  0  0
   12.2443  -11.9780    0.0000 C    0  0  0  0  0  0  0  0  0  0  0  0
    4.3887  -10.6320    0.0000 C    0  0  0  0  0  0  0  0  0  0  0  0
    4.3887  -11.9620    0.0000 C    0  0  0  0  0  0  0  0  0  0  0  0
    3.2368   -9.9670    0.0000 C    0  0  0  0  0  0  0  0  0  0  0  0
    3.2368  -12.6270    0.0000 C    0  0  0  0  0  0  0  0  0  0  0  0
    2.0850  -10.6320    0.0000 C    0  0  0  0  0  0  0  0  0  0  0  0
    2.0850  -11.9620    0.0000 C    0  0  0  0  0  0  0  0  0  0  0  0
    7.0346   -7.7396    0.0000 Br   0  0  0  0  0  0  0  0  0  0  0  0
    9.5183  -11.2169    0.0000 C    0  0  0  0  0  0  0  0  0  0  0  0
   10.3035  -12.5469    0.0000 O    0  0  0  0  0  0  0  0  0  0  0  0
  1  2  1  0  0  0  0
  1  3  2  0  0  0  0
  2  4  2  0  0  0  0
  3  5  1  0  0  0  0
  4  6  1  0  0  0  0
  5  6  2  0  0  0  0
  7  8  1  0  0  0  0
  7  9  2  0  0  0  0
  8 10  2  0  0  0  0
  9 11  1  0  0  0  0
 10 12  1  0  0  0  0
 11 12  2  0  0  0  0
 13 14  1  0  0  0  0
 13 15  1  0  0  0  0
 16 17  1  0  0  0  0
 16 18  2  0  0  0  0
 17 19  2  0  0  0  0
 18 20  1  0  0  0  0
 19 21  1  0  0  0  0
 20 21  2  0  0  0  0
 14 21  1  0  0  0  0
 22 23  1  0  0  0  0
 22 24  2  0  0  0  0
 23 25  2  0  0  0  0
 24 26  1  0  0  0  0
 25 27  1  0  0  0  0
 26 27  2  0  0  0  0
 14 26  1  0  0  0  0
 28 29  1  0  0  0  0
 28 30  2  0  0  0  0
 29 31  2  0  0  0  0
 30 32  1  0  0  0  0
 31 33  1  0  0  0  0
 32 33  2  0  0  0  0
 14 30  1  0  0  0  0
 34 35  1  0  0  0  0
 34 36  2  0  0  0  0
 35 37  2  0  0  0  0
 36 38  1  0  0  0  0
 37 39  1  0  0  0  0
 38 39  2  0  0  0  0
 15 34  1  0  0  0  0
  7 15  1  0  0  0  0
  3 15  1  0  0  0  0
 13 40  1  0  0  0  0
 13 41  1  0  0  0  0
 41 42  3  0  0  0  0
M  END
> <NMREDATA_VERSION>
1.1

> <NMREDATA_LEVEL>
0

> <NMREDATA_SOLVENT>
DCCl3

> <NMREDATA_TEMPERATURE>
295

> <NMREDATA_FORMULA>
C37H32BrOP2Rh

> <NMREDATA_SMILES>
[O]#C[Rh](P(c1ccccc1)(c1ccccc1)c1ccccc1)(P(c1ccccc1)(c1ccccc1)c1ccccc1)Br

> <NMREDATA_ASSIGNMENT>
Rh13, -421.00, 13

> <NMREDATA_1D_103Rh>
-421.00, L=Rh13

$$$$

  ACD/LABS03122417102D

 12 11  0  0  0  0  0  0  0  0  1 V2000
    7.8839   -9.4382    0.0000 Rh   0  0  0  0  0  0  0  0  0  0  0  0
    9.6305   -8.3486    0.0000 P    0  0  0  0  0  0  0  0  0  0  0  0
    6.8102  -10.6560    0.0000 P    0  0  0  0  0  0  0  0  0  0  0  0
   11.2668   -6.5298    0.0000 C    0  0  0  0  0  0  0  0  0  0  0  0
    7.0346   -7.7396    0.0000 Br   0  0  0  0  0  0  0  0  0  0  0  0
    9.5183  -11.2169    0.0000 C    0  0  0  0  0  0  0  0  0  0  0  0
   10.3035  -12.5469    0.0000 O    0  0  0  0  0  0  0  0  0  0  0  0
    9.7266   -5.8808    0.0000 C    0  0  0  0  0  0  0  0  0  0  0  0
   12.4187   -7.8518    0.0000 C    0  0  0  0  0  0  0  0  0  0  0  0
    3.9580  -10.1433    0.0000 C    0  0  0  0  0  0  0  0  0  0  0  0
    4.7111  -11.7136    0.0000 C    0  0  0  0  0  0  0  0  0  0  0  0
    7.0346  -13.2680    0.0000 C    0  0  0  0  0  0  0  0  0  0  0  0
  1  2  1  0  0  0  0
  1  3  1  0  0  0  0
  2  4  1  0  0  0  0
  1  5  1  0  0  0  0
  1  6  1  0  0  0  0
  6  7  3  0  0  0  0
  2  8  1  0  0  0  0
  2  9  1  0  0  0  0
  3 10  1  0  0  0  0
  3 11  1  0  0  0  0
  3 12  1  0  0  0  0
M  END
> <NMREDATA_VERSION>
1.1

> <NMREDATA_LEVEL>
0

> <NMREDATA_SOLVENT>
C6D6

> <NMREDATA_FORMULA>
C7H20BrOP2Rh

> <NMREDATA_SMILES>
[O]#C[Rh](P(C)(C)C)(P(C)(C)C)Br

> <NMREDATA_ASSIGNMENT>
Rh1, -448.00, 1

> <NMREDATA_1D_103Rh>
-448.00, L=Rh1

$$$$

  ACD/LABS03122417112D

 22 23  0  0  0  0  0  0  0  0  1 V2000
   13.6026   -8.7411    0.0000 C    0  0  0  0  0  0  0  0  0  0  0  0
   13.6026  -10.0711    0.0000 C    0  0  0  0  0  0  0  0  0  0  0  0
   12.4507   -8.0761    0.0000 C    0  0  0  0  0  0  0  0  0  0  0  0
   12.4507  -10.7361    0.0000 C    0  0  0  0  0  0  0  0  0  0  0  0
   11.2989   -8.7411    0.0000 C    0  0  0  0  0  0  0  0  0  0  0  0
   11.2989  -10.0711    0.0000 C    0  0  0  0  0  0  0  0  0  0  0  0
    7.8820  -12.5709    0.0000 C    0  0  0  0  0  0  0  0  0  0  0  0
    7.8820  -13.9009    0.0000 C    0  0  0  0  0  0  0  0  0  0  0  0
    6.7301  -11.9059    0.0000 C    0  0  0  0  0  0  0  0  0  0  0  0
    6.7301  -14.5659    0.0000 C    0  0  0  0  0  0  0  0  0  0  0  0
    5.5783  -12.5709    0.0000 C    0  0  0  0  0  0  0  0  0  0  0  0
    5.5783  -13.9009    0.0000 C    0  0  0  0  0  0  0  0  0  0  0  0
    7.8839   -9.4382    0.0000 Rh   0  0  0  0  0  0  0  0  0  0  0  0
    9.6305   -8.3486    0.0000 P    0  0  0  0  0  0  0  0  0  0  0  0
    6.8102  -10.6560    0.0000 P    0  0  0  0  0  0  0  0  0  0  0  0
   11.2668   -6.5298    0.0000 C    0  0  0  0  0  0  0  0  0  0  0  0
    7.0346   -7.7396    0.0000 Br   0  0  0  0  0  0  0  0  0  0  0  0
    9.5183  -11.2169    0.0000 C    0  0  0  0  0  0  0  0  0  0  0  0
   10.3035  -12.5469    0.0000 O    0  0  0  0  0  0  0  0  0  0  0  0
    9.7266   -5.8808    0.0000 C    0  0  0  0  0  0  0  0  0  0  0  0
    3.9580  -10.1433    0.0000 C    0  0  0  0  0  0  0  0  0  0  0  0
    4.7111  -11.7136    0.0000 C    0  0  0  0  0  0  0  0  0  0  0  0
  1  2  1  0  0  0  0
  1  3  2  0  0  0  0
  2  4  2  0  0  0  0
  3  5  1  0  0  0  0
  4  6  1  0  0  0  0
  5  6  2  0  0  0  0
  7  8  1  0  0  0  0
  7  9  2  0  0  0  0
  8 10  2  0  0  0  0
  9 11  1  0  0  0  0
 10 12  1  0  0  0  0
 11 12  2  0  0  0  0
 13 14  1  0  0  0  0
 13 15  1  0  0  0  0
 14 16  1  0  0  0  0
 13 17  1  0  0  0  0
 13 18  1  0  0  0  0
 18 19  3  0  0  0  0
 14 20  1  0  0  0  0
 15 21  1  0  0  0  0
 15 22  1  0  0  0  0
  9 15  1  0  0  0  0
  5 14  1  0  0  0  0
M  END
> <NMREDATA_VERSION>
1.1

> <NMREDATA_LEVEL>
0

> <NMREDATA_SOLVENT>
C6D6

> <NMREDATA_TEMPERATURE>
297

> <NMREDATA_FORMULA>
C17H24BrOP2Rh

> <NMREDATA_SMILES>
[O]#C[Rh](P(c1ccccc1)(C)C)(P(c1ccccc1)(C)C)Br

> <NMREDATA_ASSIGNMENT>
Rh13, -442.00, 13

> <NMREDATA_1D_103Rh>
-442.00, L=Rh13

$$$$

  ACD/LABS03122417142D

 42 47  0  0  0  0  0  0  0  0  1 V2000
    4.8053   -8.3886    0.0000 C    0  0  0  0  0  0  0  0  0  0  0  0
    4.8053   -9.7186    0.0000 C    0  0  0  0  0  0  0  0  0  0  0  0
    3.6534   -7.7236    0.0000 C    0  0  0  0  0  0  0  0  0  0  0  0
    3.6534  -10.3836    0.0000 C    0  0  0  0  0  0  0  0  0  0  0  0
    2.5017   -8.3886    0.0000 C    0  0  0  0  0  0  0  0  0  0  0  0
    2.5017   -9.7186    0.0000 C    0  0  0  0  0  0  0  0  0  0  0  0
    4.7893  -11.8338    0.0000 C    0  0  0  0  0  0  0  0  0  0  0  0
    4.7893  -13.1638    0.0000 C    0  0  0  0  0  0  0  0  0  0  0  0
    3.6374  -11.1688    0.0000 C    0  0  0  0  0  0  0  0  0  0  0  0
    3.6374  -13.8288    0.0000 C    0  0  0  0  0  0  0  0  0  0  0  0
    2.4856  -11.8338    0.0000 C    0  0  0  0  0  0  0  0  0  0  0  0
    2.4856  -13.1638    0.0000 C    0  0  0  0  0  0  0  0  0  0  0  0
   14.6922   -5.3601    0.0000 C    0  0  0  0  0  0  0  0  0  0  0  0
   14.6922   -6.6901    0.0000 C    0  0  0  0  0  0  0  0  0  0  0  0
   13.5403   -4.6951    0.0000 C    0  0  0  0  0  0  0  0  0  0  0  0
   13.5403   -7.3551    0.0000 C    0  0  0  0  0  0  0  0  0  0  0  0
   12.3885   -5.3601    0.0000 C    0  0  0  0  0  0  0  0  0  0  0  0
   12.3885   -6.6901    0.0000 C    0  0  0  0  0  0  0  0  0  0  0  0
   10.8785   -3.9980    0.0000 C    0  0  0  0  0  0  0  0  0  0  0  0
   10.8785   -5.3280    0.0000 C    0  0  0  0  0  0  0  0  0  0  0  0
    9.7266   -3.3330    0.0000 C    0  0  0  0  0  0  0  0  0  0  0  0
    9.7266   -5.9930    0.0000 C    0  0  0  0  0  0  0  0  0  0  0  0
    8.5748   -3.9980    0.0000 C    0  0  0  0  0  0  0  0  0  0  0  0
    8.5748   -5.3280    0.0000 C    0  0  0  0  0  0  0  0  0  0  0  0
   13.6026   -8.7411    0.0000 C    0  0  0  0  0  0  0  0  0  0  0  0
   13.6026  -10.0711    0.0000 C    0  0  0  0  0  0  0  0  0  0  0  0
   12.4507   -8.0761    0.0000 C    0  0  0  0  0  0  0  0  0  0  0  0
   12.4507  -10.7361    0.0000 C    0  0  0  0  0  0  0  0  0  0  0  0
   11.2989   -8.7411    0.0000 C    0  0  0  0  0  0  0  0  0  0  0  0
   11.2989  -10.0711    0.0000 C    0  0  0  0  0  0  0  0  0  0  0  0
    7.8820  -12.5709    0.0000 C    0  0  0  0  0  0  0  0  0  0  0  0
    7.8820  -13.9009    0.0000 C    0  0  0  0  0  0  0  0  0  0  0  0
    6.7301  -11.9059    0.0000 C    0  0  0  0  0  0  0  0  0  0  0  0
    6.7301  -14.5659    0.0000 C    0  0  0  0  0  0  0  0  0  0  0  0
    5.5783  -12.5709    0.0000 C    0  0  0  0  0  0  0  0  0  0  0  0
    5.5783  -13.9009    0.0000 C    0  0  0  0  0  0  0  0  0  0  0  0
    7.8839   -9.4382    0.0000 Rh   0  0  0  0  0  0  0  0  0  0  0  0
    9.6305   -8.3486    0.0000 P    0  0  0  0  0  0  0  0  0  0  0  0
    6.8102  -10.6560    0.0000 P    0  0  0  0  0  0  0  0  0  0  0  0
    7.0346   -7.7396    0.0000 I    0  0  0  0  0  0  0  0  0  0  0  0
    9.5183  -11.2169    0.0000 C    0  0  0  0  0  0  0  0  0  0  0  0
   10.3035  -12.5469    0.0000 O    0  0  0  0  0  0  0  0  0  0  0  0
  1  2  1  0  0  0  0
  1  3  2  0  0  0  0
  2  4  2  0  0  0  0
  3  5  1  0  0  0  0
  4  6  1  0  0  0  0
  5  6  2  0  0  0  0
  7  8  1  0  0  0  0
  7  9  2  0  0  0  0
  8 10  2  0  0  0  0
  9 11  1  0  0  0  0
 10 12  1  0  0  0  0
 11 12  2  0  0  0  0
 13 14  1  0  0  0  0
 13 15  2  0  0  0  0
 14 16  2  0  0  0  0
 15 17  1  0  0  0  0
 16 18  1  0  0  0  0
 17 18  2  0  0  0  0
 19 20  1  0  0  0  0
 19 21  2  0  0  0  0
 20 22  2  0  0  0  0
 21 23  1  0  0  0  0
 22 24  1  0  0  0  0
 23 24  2  0  0  0  0
 25 26  1  0  0  0  0
 25 27  2  0  0  0  0
 26 28  2  0  0  0  0
 27 29  1  0  0  0  0
 28 30  1  0  0  0  0
 29 30  2  0  0  0  0
 31 32  1  0  0  0  0
 31 33  2  0  0  0  0
 32 34  2  0  0  0  0
 33 35  1  0  0  0  0
 34 36  1  0  0  0  0
 35 36  2  0  0  0  0
 37 38  1  0  0  0  0
 37 39  1  0  0  0  0
 37 40  1  0  0  0  0
 37 41  1  0  0  0  0
 41 42  3  0  0  0  0
 33 39  1  0  0  0  0
 29 38  1  0  0  0  0
 22 38  1  0  0  0  0
 18 38  1  0  0  0  0
  7 39  1  0  0  0  0
  2 39  1  0  0  0  0
M  END
> <NMREDATA_VERSION>
1.1

> <NMREDATA_LEVEL>
0

> <NMREDATA_SOLVENT>
toluene-d8

> <NMREDATA_TEMPERATURE>
295

> <NMREDATA_FORMULA>
C37H32IOP2Rh

> <NMREDATA_SMILES>
[O]#C[Rh](P(c1ccccc1)(c1ccccc1)c1ccccc1)(P(c1ccccc1)(c1ccccc1)c1ccccc1)I

> <NMREDATA_ASSIGNMENT>
Rh37, -532.00, 37

> <NMREDATA_1D_103Rh>
-532.00, L=Rh37

$$$$

  ACD/LABS03122417142D

 22 23  0  0  0  0  0  0  0  0  1 V2000
    4.8053   -9.7186    0.0000 C    0  0  0  0  0  0  0  0  0  0  0  0
    4.7893  -11.8338    0.0000 C    0  0  0  0  0  0  0  0  0  0  0  0
   12.3885   -6.6901    0.0000 C    0  0  0  0  0  0  0  0  0  0  0  0
    9.7266   -5.9930    0.0000 C    0  0  0  0  0  0  0  0  0  0  0  0
   13.6026   -8.7411    0.0000 C    0  0  0  0  0  0  0  0  0  0  0  0
   13.6026  -10.0711    0.0000 C    0  0  0  0  0  0  0  0  0  0  0  0
   12.4507   -8.0761    0.0000 C    0  0  0  0  0  0  0  0  0  0  0  0
   12.4507  -10.7361    0.0000 C    0  0  0  0  0  0  0  0  0  0  0  0
   11.2989   -8.7411    0.0000 C    0  0  0  0  0  0  0  0  0  0  0  0
   11.2989  -10.0711    0.0000 C    0  0  0  0  0  0  0  0  0  0  0  0
    7.8820  -12.5709    0.0000 C    0  0  0  0  0  0  0  0  0  0  0  0
    7.8820  -13.9009    0.0000 C    0  0  0  0  0  0  0  0  0  0  0  0
    6.7301  -11.9059    0.0000 C    0  0  0  0  0  0  0  0  0  0  0  0
    6.7301  -14.5659    0.0000 C    0  0  0  0  0  0  0  0  0  0  0  0
    5.5783  -12.5709    0.0000 C    0  0  0  0  0  0  0  0  0  0  0  0
    5.5783  -13.9009    0.0000 C    0  0  0  0  0  0  0  0  0  0  0  0
    7.8839   -9.4382    0.0000 Rh   0  0  0  0  0  0  0  0  0  0  0  0
    9.6305   -8.3486    0.0000 P    0  0  0  0  0  0  0  0  0  0  0  0
    6.8102  -10.6560    0.0000 P    0  0  0  0  0  0  0  0  0  0  0  0
    7.0346   -7.7396    0.0000 I    0  0  0  0  0  0  0  0  0  0  0  0
    9.5183  -11.2169    0.0000 C    0  0  0  0  0  0  0  0  0  0  0  0
   10.3035  -12.5469    0.0000 O    0  0  0  0  0  0  0  0  0  0  0  0
  5  6  1  0  0  0  0
  5  7  2  0  0  0  0
  6  8  2  0  0  0  0
  7  9  1  0  0  0  0
  8 10  1  0  0  0  0
  9 10  2  0  0  0  0
 11 12  1  0  0  0  0
 11 13  2  0  0  0  0
 12 14  2  0  0  0  0
 13 15  1  0  0  0  0
 14 16  1  0  0  0  0
 15 16  2  0  0  0  0
 17 18  1  0  0  0  0
 17 19  1  0  0  0  0
 17 20  1  0  0  0  0
 17 21  1  0  0  0  0
 21 22  3  0  0  0  0
 13 19  1  0  0  0  0
  9 18  1  0  0  0  0
  4 18  1  0  0  0  0
  3 18  1  0  0  0  0
  2 19  1  0  0  0  0
  1 19  1  0  0  0  0
M  END
> <NMREDATA_VERSION>
1.1

> <NMREDATA_LEVEL>
0

> <NMREDATA_SOLVENT>
C6D6

> <NMREDATA_TEMPERATURE>
297

> <NMREDATA_FORMULA>
C17H24IOP2Rh

> <NMREDATA_SMILES>
[O]#C[Rh](P(c1ccccc1)(C)C)(P(c1ccccc1)(C)C)I

> <NMREDATA_ASSIGNMENT>
Rh17, -524.00, 17

> <NMREDATA_1D_103Rh>
-524.00, L=Rh17

$$$$

  ACD/LABS03122417242D

 36 38  0  0  0  0  0  0  0  0  2 V2000
   30.6541  -17.0477    0.0000 C    0  0  0  0  0  0  0  0  0  0  0  0
   29.9891  -18.1995    0.0000 C    0  0  0  0  0  0  0  0  0  0  0  0
   29.9891  -15.8958    0.0000 C    0  0  0  0  0  0  0  0  0  0  0  0
   28.6591  -18.1995    0.0000 C    0  0  0  0  0  0  0  0  0  0  0  0
   28.6591  -15.8958    0.0000 C    0  0  0  0  0  0  0  0  0  0  0  0
   27.9941  -17.0477    0.0000 C    0  0  0  0  0  0  0  0  0  0  0  0
   27.9941  -14.7440    0.0000 B    0  5  0  0  0  0  0  0  0  0  0  0
   29.1459  -14.0790    0.0000 C    0  0  0  0  0  0  0  0  0  0  0  0
   29.1459  -12.7490    0.0000 C    0  0  0  0  0  0  0  0  0  0  0  0
   30.2977  -14.7440    0.0000 C    0  0  0  0  0  0  0  0  0  0  0  0
   30.2977  -12.0840    0.0000 C    0  0  0  0  0  0  0  0  0  0  0  0
   31.4495  -14.0790    0.0000 C    0  0  0  0  0  0  0  0  0  0  0  0
   31.4495  -12.7490    0.0000 C    0  0  0  0  0  0  0  0  0  0  0  0
   26.8423  -15.4090    0.0000 C    0  0  0  0  0  0  0  0  0  0  0  0
   26.8423  -16.7390    0.0000 C    0  0  0  0  0  0  0  0  0  0  0  0
   25.6905  -14.7440    0.0000 C    0  0  0  0  0  0  0  0  0  0  0  0
   25.6905  -17.4040    0.0000 C    0  0  0  0  0  0  0  0  0  0  0  0
   24.5387  -15.4090    0.0000 C    0  0  0  0  0  0  0  0  0  0  0  0
   24.5387  -16.7390    0.0000 C    0  0  0  0  0  0  0  0  0  0  0  0
   27.3291  -13.5922    0.0000 C    0  0  0  0  0  0  0  0  0  0  0  0
   25.9991  -13.5922    0.0000 C    0  0  0  0  0  0  0  0  0  0  0  0
   27.9941  -12.4404    0.0000 C    0  0  0  0  0  0  0  0  0  0  0  0
   25.3341  -12.4404    0.0000 C    0  0  0  0  0  0  0  0  0  0  0  0
   27.3291  -11.2886    0.0000 C    0  0  0  0  0  0  0  0  0  0  0  0
   25.9991  -11.2886    0.0000 C    0  0  0  0  0  0  0  0  0  0  0  0
    9.1374  -11.4529    0.0000 Rh   0  5  0  0  0  0  0  0  0  0  0  0
   10.7472  -10.5235    0.0000 C    0  0  0  0  0  0  0  0  0  0  0  0
   12.3569   -9.5941    0.0000 O    0  0  0  0  0  0  0  0  0  0  0  0
   10.0668  -13.0627    0.0000 C    0  0  0  0  0  0  0  0  0  0  0  0
   10.9962  -14.6724    0.0000 O    0  0  0  0  0  0  0  0  0  0  0  0
    8.2080   -9.8431    0.0000 C    0  0  0  0  0  0  0  0  0  0  0  0
    7.2786   -8.2334    0.0000 N    0  3  0  0  0  0  0  0  0  0  0  0
    6.3492   -6.6236    0.0000 C    0  0  0  0  0  0  0  0  0  0  0  0
    7.5277  -12.3823    0.0000 C    0  0  0  0  0  0  0  0  0  0  0  0
    5.9179  -13.3117    0.0000 N    0  3  0  0  0  0  0  0  0  0  0  0
    4.3081  -14.2411    0.0000 C    0  0  0  0  0  0  0  0  0  0  0  0
  1  2  1  0  0  0  0
  1  3  2  0  0  0  0
  2  4  2  0  0  0  0
  3  5  1  0  0  0  0
  4  6  1  0  0  0  0
  5  6  2  0  0  0  0
  8  9  1  0  0  0  0
  8 10  2  0  0  0  0
  9 11  2  0  0  0  0
 10 12  1  0  0  0  0
 11 13  1  0  0  0  0
 12 13  2  0  0  0  0
  7  8  1  0  0  0  0
 14 15  1  0  0  0  0
 14 16  2  0  0  0  0
 15 17  2  0  0  0  0
 16 18  1  0  0  0  0
 17 19  1  0  0  0  0
 18 19  2  0  0  0  0
  7 14  1  0  0  0  0
 20 21  1  0  0  0  0
 20 22  2  0  0  0  0
 21 23  2  0  0  0  0
 22 24  1  0  0  0  0
 23 25  1  0  0  0  0
 24 25  2  0  0  0  0
  7 20  1  0  0  0  0
  5  7  1  0  0  0  0
 26 27  1  0  0  0  0
 27 28  3  0  0  0  0
 26 29  1  0  0  0  0
 29 30  3  0  0  0  0
 31 32  3  0  0  0  0
 26 31  1  0  0  0  0
 32 33  1  0  0  0  0
 34 35  3  0  0  0  0
 26 34  1  0  0  0  0
 35 36  1  0  0  0  0
M  END
> <NMREDATA_VERSION>
1.1

> <NMREDATA_LEVEL>
0

> <NMREDATA_SOLVENT>
CD3CN

> <NMREDATA_TEMPERATURE>
298

> <NMREDATA_FORMULA>
C30H28BN2O2Rh

> <NMREDATA_SMILES>
c1ccc(cc1)[B](c1ccccc1)(c1ccccc1)c1ccccc1.CN#C[Rh](C#NC)(C#[O])C#[O]

> <NMREDATA_ASSIGNMENT>
Rh26, -54.00, 26

> <NMREDATA_1D_103Rh>
-54.00, L=Rh26

$$$$

  ACD/LABS03122417252D

 22 22  0  0  0  0  0  0  0  0  2 V2000
   10.7877  -13.1139    0.0000 Rh   0  3  0  0  0  0  0  0  0  0  0  0
    8.8866  -12.0163    0.0000 C    0  0  0  0  0  0  0  0  0  0  0  0
   11.8854  -11.2128    0.0000 C    0  0  0  0  0  0  0  0  0  0  0  0
   12.9830   -9.3116    0.0000 O    0  0  0  0  0  0  0  0  0  0  0  0
    6.9854  -10.9186    0.0000 O    0  0  0  0  0  0  0  0  0  0  0  0
    9.6901  -15.0151    0.0000 N    0  0  0  0  0  0  0  0  0  0  0  0
   10.7877  -16.9163    0.0000 C    0  0  0  0  0  0  0  0  0  0  0  0
    7.4948  -15.0151    0.0000 C    0  0  0  0  0  0  0  0  0  0  0  0
    9.6901  -18.8175    0.0000 C    0  0  0  0  0  0  0  0  0  0  0  0
    6.3971  -16.9163    0.0000 C    0  0  0  0  0  0  0  0  0  0  0  0
    7.4948  -18.8175    0.0000 C    0  0  0  0  0  0  0  0  0  0  0  0
   12.6889  -14.2116    0.0000 N    0  0  0  0  0  0  0  0  0  0  0  0
   14.5901  -13.1139    0.0000 C    0  0  0  0  0  0  0  0  0  0  0  0
   12.6889  -16.4069    0.0000 C    0  0  0  0  0  0  0  0  0  0  0  0
   16.4913  -14.2116    0.0000 C    0  0  0  0  0  0  0  0  0  0  0  0
   14.5901  -17.5045    0.0000 C    0  0  0  0  0  0  0  0  0  0  0  0
   16.4913  -16.4069    0.0000 C    0  0  0  0  0  0  0  0  0  0  0  0
   23.0186  -10.6721    0.0000 Cl   0  0  0  0  0  0  0  0  0  0  0  0
   21.2840   -9.6705    0.0000 O    0  0  0  0  0  0  0  0  0  0  0  0
   24.0201   -8.9374    0.0000 O    0  0  0  0  0  0  0  0  0  0  0  0
   22.0171  -12.4067    0.0000 O    0  0  0  0  0  0  0  0  0  0  0  0
   24.7533  -11.6736    0.0000 O    0  5  0  0  0  0  0  0  0  0  0  0
  1  2  1  0  0  0  0
  1  3  1  0  0  0  0
  3  4  3  0  0  0  0
  2  5  3  0  0  0  0
  6  7  1  0  0  0  0
  6  8  2  0  0  0  0
  7  9  2  0  0  0  0
  8 10  1  0  0  0  0
  9 11  1  0  0  0  0
 10 11  2  0  0  0  0
  1  6  1  0  0  0  0
 12 13  1  0  0  0  0
 12 14  2  0  0  0  0
 13 15  2  0  0  0  0
 14 16  1  0  0  0  0
 15 17  1  0  0  0  0
 16 17  2  0  0  0  0
  1 12  1  0  0  0  0
 18 19  2  0  0  0  0
 18 20  2  0  0  0  0
 18 21  2  0  0  0  0
 18 22  1  0  0  0  0
M  END
> <NMREDATA_VERSION>
1.1

> <NMREDATA_LEVEL>
0

> <NMREDATA_SOLVENT>
CD2Cl2

> <NMREDATA_TEMPERATURE>
223

> <NMREDATA_FORMULA>
C12H13ClN2O6Rh

> <NMREDATA_SMILES>
O[Cl](=O)(=O)=O.[O]#C[Rh](N1=CC=CC=C1)(N1=CC=CC=C1)C#[O]

> <NMREDATA_ASSIGNMENT>
Rh1, 73.00, 1

> <NMREDATA_1D_103Rh>
73.00, L=Rh1

$$$$

  ACD/LABS03122417292D

 46 50  0  0  0  0  0  0  0  0  2 V2000
    7.5410  -11.1863    0.0000 C    0  0  0  0  0  0  0  0  0  0  0  0
    7.5410   -9.2153    0.0000 N    0  0  0  0  0  0  0  0  0  0  0  0
    5.9382   -8.0460    0.0000 C    0  0  0  0  0  0  0  0  0  0  0  0
    9.1310   -8.0460    0.0000 N    0  0  0  0  0  0  0  0  0  0  0  0
    6.5560   -6.1807    0.0000 C    0  0  0  0  0  0  0  0  0  0  0  0
    8.5265   -6.1807    0.0000 C    0  0  0  0  0  0  0  0  0  0  0  0
    9.6692   -4.5774    0.0000 C    0  0  0  0  0  0  0  0  0  0  0  0
    4.0728   -8.6633    0.0000 C    0  0  0  0  0  0  0  0  0  0  0  0
    9.2357  -12.1580    0.0000 Rh   0  3  0  0  0  0  0  0  0  0  0  0
   10.2075  -10.4633    0.0000 C    0  0  0  0  0  0  0  0  0  0  0  0
   11.1930   -8.7557    0.0000 O    0  0  0  0  0  0  0  0  0  0  0  0
    8.2640  -13.8528    0.0000 C    0  0  0  0  0  0  0  0  0  0  0  0
    7.2785  -15.5603    0.0000 O    0  0  0  0  0  0  0  0  0  0  0  0
   10.9305  -13.1298    0.0000 C    0  0  0  0  0  0  0  0  0  0  0  0
   10.9305  -15.1007    0.0000 N    0  0  0  0  0  0  0  0  0  0  0  0
   12.5333  -16.2700    0.0000 C    0  0  0  0  0  0  0  0  0  0  0  0
    9.3404  -16.2700    0.0000 N    0  0  0  0  0  0  0  0  0  0  0  0
   11.9155  -18.1353    0.0000 C    0  0  0  0  0  0  0  0  0  0  0  0
    9.9450  -18.1353    0.0000 C    0  0  0  0  0  0  0  0  0  0  0  0
    8.8022  -19.7386    0.0000 C    0  0  0  0  0  0  0  0  0  0  0  0
   14.3986  -15.6527    0.0000 C    0  0  0  0  0  0  0  0  0  0  0  0
   21.2903   -7.6755    0.0000 C    0  0  0  0  0  0  0  0  0  0  0  0
   21.2903   -9.0055    0.0000 C    0  0  0  0  0  0  0  0  0  0  0  0
   20.1385   -7.0105    0.0000 C    0  0  0  0  0  0  0  0  0  0  0  0
   20.1385   -9.6705    0.0000 C    0  0  0  0  0  0  0  0  0  0  0  0
   18.9866   -7.6755    0.0000 C    0  0  0  0  0  0  0  0  0  0  0  0
   18.9866   -9.0055    0.0000 C    0  0  0  0  0  0  0  0  0  0  0  0
   15.5312  -12.3305    0.0000 C    0  0  0  0  0  0  0  0  0  0  0  0
   14.3794  -11.6655    0.0000 C    0  0  0  0  0  0  0  0  0  0  0  0
   16.6830  -11.6655    0.0000 C    0  0  0  0  0  0  0  0  0  0  0  0
   14.3794  -10.3355    0.0000 C    0  0  0  0  0  0  0  0  0  0  0  0
   16.6830  -10.3355    0.0000 C    0  0  0  0  0  0  0  0  0  0  0  0
   15.5312   -9.6705    0.0000 C    0  0  0  0  0  0  0  0  0  0  0  0
   18.4998  -10.8224    0.0000 C    0  0  0  0  0  0  0  0  0  0  0  0
   19.8298  -10.8224    0.0000 C    0  0  0  0  0  0  0  0  0  0  0  0
   17.8348  -11.9742    0.0000 C    0  0  0  0  0  0  0  0  0  0  0  0
   20.4948  -11.9742    0.0000 C    0  0  0  0  0  0  0  0  0  0  0  0
   18.4998  -13.1260    0.0000 C    0  0  0  0  0  0  0  0  0  0  0  0
   19.8298  -13.1260    0.0000 C    0  0  0  0  0  0  0  0  0  0  0  0
   17.1698   -6.2151    0.0000 C    0  0  0  0  0  0  0  0  0  0  0  0
   17.8348   -7.3669    0.0000 C    0  0  0  0  0  0  0  0  0  0  0  0
   15.8398   -6.2151    0.0000 C    0  0  0  0  0  0  0  0  0  0  0  0
   17.1698   -8.5187    0.0000 C    0  0  0  0  0  0  0  0  0  0  0  0
   15.1748   -7.3669    0.0000 C    0  0  0  0  0  0  0  0  0  0  0  0
   15.8398   -8.5187    0.0000 C    0  0  0  0  0  0  0  0  0  0  0  0
   17.8348   -9.6705    0.0000 B    0  5  0  0  0  0  0  0  0  0  0  0
  2  3  1  0  0  0  0
  2  4  1  0  0  0  0
  3  5  2  0  0  0  0
  4  6  2  0  0  0  0
  5  6  1  0  0  0  0
  1  2  1  0  0  0  0
  6  7  1  0  0  0  0
  3  8  1  0  0  0  0
  9 10  1  0  0  0  0
 10 11  3  0  0  0  0
  9 12  1  0  0  0  0
 12 13  3  0  0  0  0
  9 14  1  0  0  0  0
 15 16  1  0  0  0  0
 15 17  1  0  0  0  0
 16 18  2  0  0  0  0
 17 19  2  0  0  0  0
 18 19  1  0  0  0  0
 14 15  1  0  0  0  0
 19 20  1  0  0  0  0
 16 21  1  0  0  0  0
  1  9  1  0  0  0  0
 22 23  1  0  0  0  0
 22 24  2  0  0  0  0
 23 25  2  0  0  0  0
 24 26  1  0  0  0  0
 25 27  1  0  0  0  0
 26 27  2  0  0  0  0
 28 29  1  0  0  0  0
 28 30  2  0  0  0  0
 29 31  2  0  0  0  0
 30 32  1  0  0  0  0
 31 33  1  0  0  0  0
 32 33  2  0  0  0  0
 34 35  1  0  0  0  0
 34 36  2  0  0  0  0
 35 37  2  0  0  0  0
 36 38  1  0  0  0  0
 37 39  1  0  0  0  0
 38 39  2  0  0  0  0
 40 41  1  0  0  0  0
 40 42  2  0  0  0  0
 41 43  2  0  0  0  0
 42 44  1  0  0  0  0
 43 45  1  0  0  0  0
 44 45  2  0  0  0  0
 43 46  1  0  0  0  0
 34 46  1  0  0  0  0
 32 46  1  0  0  0  0
 27 46  1  0  0  0  0
M  END
> <NMREDATA_VERSION>
1.1

> <NMREDATA_LEVEL>
0

> <NMREDATA_SOLVENT>
acetone

> <NMREDATA_TEMPERATURE>
298

> <NMREDATA_FORMULA>
C38H38BN4O2Rh

> <NMREDATA_SMILES>
c1ccc(cc1)[B](c1ccccc1)(c1ccccc1)c1ccccc1.[O]#C[Rh](Cn1nc(cc1C)C)(Cn1nc(cc1C)C)C#[O]

> <NMREDATA_ASSIGNMENT>
Rh9, -109.00, 9

> <NMREDATA_1D_103Rh>
-109.00, L=Rh9

$$$$

  ACD/LABS03122417382D

 24 22  0  0  0  0  0  0  0  0  2 V2000
   11.1528   -9.1738    0.0000 Rh   0  5  0  0  0  0  0  0  0  0  0  0
   11.1528  -11.0807    0.0000 Cl   0  0  0  0  0  0  0  0  0  0  0  0
    9.2459   -9.1738    0.0000 Cl   0  0  0  0  0  0  0  0  0  0  0  0
   13.0596   -9.1738    0.0000 C    0  0  0  0  0  0  0  0  0  0  0  0
   11.1528   -7.2669    0.0000 C    0  0  0  0  0  0  0  0  0  0  0  0
   14.9665   -9.1738    0.0000 O    0  0  0  0  0  0  0  0  0  0  0  0
   11.1528   -5.3601    0.0000 O    0  0  0  0  0  0  0  0  0  0  0  0
   25.5005   -9.0216    0.0000 N    0  3  0  0  0  0  0  0  0  0  0  0
   27.1380   -8.0761    0.0000 C    0  0  0  0  0  0  0  0  0  0  0  0
   27.1380   -6.1853    0.0000 C    0  0  0  0  0  0  0  0  0  0  0  0
   28.7755   -5.2399    0.0000 C    0  0  0  0  0  0  0  0  0  0  0  0
   28.7755   -3.3490    0.0000 C    0  0  0  0  0  0  0  0  0  0  0  0
   24.5550   -7.3841    0.0000 C    0  0  0  0  0  0  0  0  0  0  0  0
   25.5005   -5.7465    0.0000 C    0  0  0  0  0  0  0  0  0  0  0  0
   24.5550   -4.1090    0.0000 C    0  0  0  0  0  0  0  0  0  0  0  0
   25.5005   -2.4715    0.0000 C    0  0  0  0  0  0  0  0  0  0  0  0
   26.4459  -10.6591    0.0000 C    0  0  0  0  0  0  0  0  0  0  0  0
   25.5005  -12.2966    0.0000 C    0  0  0  0  0  0  0  0  0  0  0  0
   26.4459  -13.9341    0.0000 C    0  0  0  0  0  0  0  0  0  0  0  0
   25.5005  -15.5716    0.0000 C    0  0  0  0  0  0  0  0  0  0  0  0
   23.8629   -9.9670    0.0000 C    0  0  0  0  0  0  0  0  0  0  0  0
   22.2254   -9.0216    0.0000 C    0  0  0  0  0  0  0  0  0  0  0  0
   20.5879   -9.9670    0.0000 C    0  0  0  0  0  0  0  0  0  0  0  0
   18.9504   -9.0216    0.0000 C    0  0  0  0  0  0  0  0  0  0  0  0
  1  2  1  0  0  0  0
  1  3  1  0  0  0  0
  1  4  1  0  0  0  0
  1  5  1  0  0  0  0
  4  6  3  0  0  0  0
  5  7  3  0  0  0  0
  8  9  1  0  0  0  0
  9 10  1  0  0  0  0
 10 11  1  0  0  0  0
 11 12  1  0  0  0  0
  8 13  1  0  0  0  0
 13 14  1  0  0  0  0
 14 15  1  0  0  0  0
 15 16  1  0  0  0  0
  8 17  1  0  0  0  0
 17 18  1  0  0  0  0
 18 19  1  0  0  0  0
 19 20  1  0  0  0  0
  8 21  1  0  0  0  0
 21 22  1  0  0  0  0
 22 23  1  0  0  0  0
 23 24  1  0  0  0  0
M  END
> <NMREDATA_VERSION>
1.1

> <NMREDATA_LEVEL>
0

> <NMREDATA_SOLVENT>
CD2Cl2

> <NMREDATA_TEMPERATURE>
200

> <NMREDATA_FORMULA>
C18H37Cl2NO2Rh

> <NMREDATA_SMILES>
[O]#C[Rh](C#[O])(Cl)Cl.CCCCN(CCCC)(CCCC)CCCC

> <NMREDATA_ASSIGNMENT>
Rh1, 73.00, 1

> <NMREDATA_1D_103Rh>
73.00, L=Rh1

$$$$

  ACD/LABS03122417392D

 24 22  0  0  0  0  0  0  0  0  2 V2000
   11.1528   -9.1738    0.0000 Rh   0  5  0  0  0  0  0  0  0  0  0  0
   11.1528  -11.0807    0.0000 Cl   0  0  0  0  0  0  0  0  0  0  0  0
    9.2459   -9.1738    0.0000 Cl   0  0  0  0  0  0  0  0  0  0  0  0
   13.0596   -9.1738    0.0000 C    0  0  0  0  0  0  0  0  0  0  0  0
   11.1528   -7.2669    0.0000 C    0  0  0  0  0  0  0  0  0  0  0  0
   14.9665   -9.1738    0.0000 O    0  0  0  0  0  0  0  0  0  0  0  0
   11.1528   -5.3601    0.0000 O    0  0  0  0  0  0  0  0  0  0  0  0
   25.5005   -9.0216    0.0000 N    0  3  0  0  0  0  0  0  0  0  0  0
   27.1380   -8.0761    0.0000 C    0  0  0  0  0  0  0  0  0  0  0  0
   27.1380   -6.1853    0.0000 C    0  0  0  0  0  0  0  0  0  0  0  0
   28.7755   -5.2399    0.0000 C    0  0  0  0  0  0  0  0  0  0  0  0
   28.7755   -3.3490    0.0000 C    0  0  0  0  0  0  0  0  0  0  0  0
   24.5550   -7.3841    0.0000 C    0  0  0  0  0  0  0  0  0  0  0  0
   25.5005   -5.7465    0.0000 C    0  0  0  0  0  0  0  0  0  0  0  0
   24.5550   -4.1090    0.0000 C    0  0  0  0  0  0  0  0  0  0  0  0
   25.5005   -2.4715    0.0000 C    0  0  0  0  0  0  0  0  0  0  0  0
   26.4459  -10.6591    0.0000 C    0  0  0  0  0  0  0  0  0  0  0  0
   25.5005  -12.2966    0.0000 C    0  0  0  0  0  0  0  0  0  0  0  0
   26.4459  -13.9341    0.0000 C    0  0  0  0  0  0  0  0  0  0  0  0
   25.5005  -15.5716    0.0000 C    0  0  0  0  0  0  0  0  0  0  0  0
   23.8629   -9.9670    0.0000 C    0  0  0  0  0  0  0  0  0  0  0  0
   22.2254   -9.0216    0.0000 C    0  0  0  0  0  0  0  0  0  0  0  0
   20.5879   -9.9670    0.0000 C    0  0  0  0  0  0  0  0  0  0  0  0
   18.9504   -9.0216    0.0000 C    0  0  0  0  0  0  0  0  0  0  0  0
  1  2  1  0  0  0  0
  1  3  1  0  0  0  0
  1  4  1  0  0  0  0
  1  5  1  0  0  0  0
  4  6  3  0  0  0  0
  5  7  3  0  0  0  0
  8  9  1  0  0  0  0
  9 10  1  0  0  0  0
 10 11  1  0  0  0  0
 11 12  1  0  0  0  0
  8 13  1  0  0  0  0
 13 14  1  0  0  0  0
 14 15  1  0  0  0  0
 15 16  1  0  0  0  0
  8 17  1  0  0  0  0
 17 18  1  0  0  0  0
 18 19  1  0  0  0  0
 19 20  1  0  0  0  0
  8 21  1  0  0  0  0
 21 22  1  0  0  0  0
 22 23  1  0  0  0  0
 23 24  1  0  0  0  0
M  END
> <NMREDATA_VERSION>
1.1

> <NMREDATA_LEVEL>
0

> <NMREDATA_SOLVENT>
DCCl3

> <NMREDATA_TEMPERATURE>
243

> <NMREDATA_FORMULA>
C18H37Cl2NO2Rh

> <NMREDATA_SMILES>
[O]#C[Rh](C#[O])(Cl)Cl.CCCCN(CCCC)(CCCC)CCCC

> <NMREDATA_ASSIGNMENT>
Rh1, -17.00, 1

> <NMREDATA_1D_103Rh>
-17.00, L=Rh1

$$$$

  ACD/LABS03122417452D

 24 22  0  0  0  0  0  0  0  0  2 V2000
   11.1528   -9.1738    0.0000 Rh   0  5  0  0  0  0  0  0  0  0  0  0
   11.1528  -11.0807    0.0000 Cl   0  0  0  0  0  0  0  0  0  0  0  0
    9.2459   -9.1738    0.0000 Br   0  0  0  0  0  0  0  0  0  0  0  0
   13.0596   -9.1738    0.0000 C    0  0  0  0  0  0  0  0  0  0  0  0
   11.1528   -7.2669    0.0000 C    0  0  0  0  0  0  0  0  0  0  0  0
   14.9665   -9.1738    0.0000 O    0  0  0  0  0  0  0  0  0  0  0  0
   11.1528   -5.3601    0.0000 O    0  0  0  0  0  0  0  0  0  0  0  0
   25.5005   -9.0216    0.0000 N    0  3  0  0  0  0  0  0  0  0  0  0
   27.1380   -8.0761    0.0000 C    0  0  0  0  0  0  0  0  0  0  0  0
   27.1380   -6.1853    0.0000 C    0  0  0  0  0  0  0  0  0  0  0  0
   28.7755   -5.2399    0.0000 C    0  0  0  0  0  0  0  0  0  0  0  0
   28.7755   -3.3490    0.0000 C    0  0  0  0  0  0  0  0  0  0  0  0
   24.5550   -7.3841    0.0000 C    0  0  0  0  0  0  0  0  0  0  0  0
   25.5005   -5.7465    0.0000 C    0  0  0  0  0  0  0  0  0  0  0  0
   24.5550   -4.1090    0.0000 C    0  0  0  0  0  0  0  0  0  0  0  0
   25.5005   -2.4715    0.0000 C    0  0  0  0  0  0  0  0  0  0  0  0
   26.4459  -10.6591    0.0000 C    0  0  0  0  0  0  0  0  0  0  0  0
   25.5005  -12.2966    0.0000 C    0  0  0  0  0  0  0  0  0  0  0  0
   26.4459  -13.9341    0.0000 C    0  0  0  0  0  0  0  0  0  0  0  0
   25.5005  -15.5716    0.0000 C    0  0  0  0  0  0  0  0  0  0  0  0
   23.8629   -9.9670    0.0000 C    0  0  0  0  0  0  0  0  0  0  0  0
   22.2254   -9.0216    0.0000 C    0  0  0  0  0  0  0  0  0  0  0  0
   20.5879   -9.9670    0.0000 C    0  0  0  0  0  0  0  0  0  0  0  0
   18.9504   -9.0216    0.0000 C    0  0  0  0  0  0  0  0  0  0  0  0
  1  2  1  0  0  0  0
  1  3  1  0  0  0  0
  1  4  1  0  0  0  0
  1  5  1  0  0  0  0
  4  6  3  0  0  0  0
  5  7  3  0  0  0  0
  8  9  1  0  0  0  0
  9 10  1  0  0  0  0
 10 11  1  0  0  0  0
 11 12  1  0  0  0  0
  8 13  1  0  0  0  0
 13 14  1  0  0  0  0
 14 15  1  0  0  0  0
 15 16  1  0  0  0  0
  8 17  1  0  0  0  0
 17 18  1  0  0  0  0
 18 19  1  0  0  0  0
 19 20  1  0  0  0  0
  8 21  1  0  0  0  0
 21 22  1  0  0  0  0
 22 23  1  0  0  0  0
 23 24  1  0  0  0  0
M  END
> <NMREDATA_VERSION>
1.1

> <NMREDATA_LEVEL>
0

> <NMREDATA_SOLVENT>
CD2Cl2

> <NMREDATA_TEMPERATURE>
200

> <NMREDATA_FORMULA>
C18H37BrClNO2Rh

> <NMREDATA_SMILES>
[O]#C[Rh](C#[O])(Br)Cl.CCCCN(CCCC)(CCCC)CCCC

> <NMREDATA_ASSIGNMENT>
Rh1, 35.00, 1

> <NMREDATA_1D_103Rh>
35.00, L=Rh1

$$$$

  ACD/LABS03122417412D

 24 22  0  0  0  0  0  0  0  0  2 V2000
   11.1528   -9.1738    0.0000 Rh   0  5  0  0  0  0  0  0  0  0  0  0
   11.1528  -11.0807    0.0000 I    0  0  0  0  0  0  0  0  0  0  0  0
    9.2459   -9.1738    0.0000 Cl   0  0  0  0  0  0  0  0  0  0  0  0
   13.0596   -9.1738    0.0000 C    0  0  0  0  0  0  0  0  0  0  0  0
   11.1528   -7.2669    0.0000 C    0  0  0  0  0  0  0  0  0  0  0  0
   14.9665   -9.1738    0.0000 O    0  0  0  0  0  0  0  0  0  0  0  0
   11.1528   -5.3601    0.0000 O    0  0  0  0  0  0  0  0  0  0  0  0
   25.5005   -9.0216    0.0000 N    0  3  0  0  0  0  0  0  0  0  0  0
   27.1380   -8.0761    0.0000 C    0  0  0  0  0  0  0  0  0  0  0  0
   27.1380   -6.1853    0.0000 C    0  0  0  0  0  0  0  0  0  0  0  0
   28.7755   -5.2399    0.0000 C    0  0  0  0  0  0  0  0  0  0  0  0
   28.7755   -3.3490    0.0000 C    0  0  0  0  0  0  0  0  0  0  0  0
   24.5550   -7.3841    0.0000 C    0  0  0  0  0  0  0  0  0  0  0  0
   25.5005   -5.7465    0.0000 C    0  0  0  0  0  0  0  0  0  0  0  0
   24.5550   -4.1090    0.0000 C    0  0  0  0  0  0  0  0  0  0  0  0
   25.5005   -2.4715    0.0000 C    0  0  0  0  0  0  0  0  0  0  0  0
   26.4459  -10.6591    0.0000 C    0  0  0  0  0  0  0  0  0  0  0  0
   25.5005  -12.2966    0.0000 C    0  0  0  0  0  0  0  0  0  0  0  0
   26.4459  -13.9341    0.0000 C    0  0  0  0  0  0  0  0  0  0  0  0
   25.5005  -15.5716    0.0000 C    0  0  0  0  0  0  0  0  0  0  0  0
   23.8629   -9.9670    0.0000 C    0  0  0  0  0  0  0  0  0  0  0  0
   22.2254   -9.0216    0.0000 C    0  0  0  0  0  0  0  0  0  0  0  0
   20.5879   -9.9670    0.0000 C    0  0  0  0  0  0  0  0  0  0  0  0
   18.9504   -9.0216    0.0000 C    0  0  0  0  0  0  0  0  0  0  0  0
  1  2  1  0  0  0  0
  1  3  1  0  0  0  0
  1  4  1  0  0  0  0
  1  5  1  0  0  0  0
  4  6  3  0  0  0  0
  5  7  3  0  0  0  0
  8  9  1  0  0  0  0
  9 10  1  0  0  0  0
 10 11  1  0  0  0  0
 11 12  1  0  0  0  0
  8 13  1  0  0  0  0
 13 14  1  0  0  0  0
 14 15  1  0  0  0  0
 15 16  1  0  0  0  0
  8 17  1  0  0  0  0
 17 18  1  0  0  0  0
 18 19  1  0  0  0  0
 19 20  1  0  0  0  0
  8 21  1  0  0  0  0
 21 22  1  0  0  0  0
 22 23  1  0  0  0  0
 23 24  1  0  0  0  0
M  END
> <NMREDATA_VERSION>
1.1

> <NMREDATA_LEVEL>
0

> <NMREDATA_SOLVENT>
CD2Cl2

> <NMREDATA_TEMPERATURE>
200

> <NMREDATA_FORMULA>
C18H37ClINO2Rh

> <NMREDATA_SMILES>
[O]#C[Rh](C#[O])(I)Cl.CCCCN(CCCC)(CCCC)CCCC

> <NMREDATA_ASSIGNMENT>
Rh1, -46.00, 1

> <NMREDATA_1D_103Rh>
-46.00, L=Rh1

$$$$

  ACD/LABS03122417422D

 24 22  0  0  0  0  0  0  0  0  2 V2000
   11.1528   -9.1738    0.0000 Rh   0  5  0  0  0  0  0  0  0  0  0  0
   11.1528  -11.0807    0.0000 Br   0  0  0  0  0  0  0  0  0  0  0  0
    9.2459   -9.1738    0.0000 Br   0  0  0  0  0  0  0  0  0  0  0  0
   13.0596   -9.1738    0.0000 C    0  0  0  0  0  0  0  0  0  0  0  0
   11.1528   -7.2669    0.0000 C    0  0  0  0  0  0  0  0  0  0  0  0
   14.9665   -9.1738    0.0000 O    0  0  0  0  0  0  0  0  0  0  0  0
   11.1528   -5.3601    0.0000 O    0  0  0  0  0  0  0  0  0  0  0  0
   25.5005   -9.0216    0.0000 N    0  3  0  0  0  0  0  0  0  0  0  0
   27.1380   -8.0761    0.0000 C    0  0  0  0  0  0  0  0  0  0  0  0
   27.1380   -6.1853    0.0000 C    0  0  0  0  0  0  0  0  0  0  0  0
   28.7755   -5.2399    0.0000 C    0  0  0  0  0  0  0  0  0  0  0  0
   28.7755   -3.3490    0.0000 C    0  0  0  0  0  0  0  0  0  0  0  0
   24.5550   -7.3841    0.0000 C    0  0  0  0  0  0  0  0  0  0  0  0
   25.5005   -5.7465    0.0000 C    0  0  0  0  0  0  0  0  0  0  0  0
   24.5550   -4.1090    0.0000 C    0  0  0  0  0  0  0  0  0  0  0  0
   25.5005   -2.4715    0.0000 C    0  0  0  0  0  0  0  0  0  0  0  0
   26.4459  -10.6591    0.0000 C    0  0  0  0  0  0  0  0  0  0  0  0
   25.5005  -12.2966    0.0000 C    0  0  0  0  0  0  0  0  0  0  0  0
   26.4459  -13.9341    0.0000 C    0  0  0  0  0  0  0  0  0  0  0  0
   25.5005  -15.5716    0.0000 C    0  0  0  0  0  0  0  0  0  0  0  0
   23.8629   -9.9670    0.0000 C    0  0  0  0  0  0  0  0  0  0  0  0
   22.2254   -9.0216    0.0000 C    0  0  0  0  0  0  0  0  0  0  0  0
   20.5879   -9.9670    0.0000 C    0  0  0  0  0  0  0  0  0  0  0  0
   18.9504   -9.0216    0.0000 C    0  0  0  0  0  0  0  0  0  0  0  0
  1  2  1  0  0  0  0
  1  3  1  0  0  0  0
  1  4  1  0  0  0  0
  1  5  1  0  0  0  0
  4  6  3  0  0  0  0
  5  7  3  0  0  0  0
  8  9  1  0  0  0  0
  9 10  1  0  0  0  0
 10 11  1  0  0  0  0
 11 12  1  0  0  0  0
  8 13  1  0  0  0  0
 13 14  1  0  0  0  0
 14 15  1  0  0  0  0
 15 16  1  0  0  0  0
  8 17  1  0  0  0  0
 17 18  1  0  0  0  0
 18 19  1  0  0  0  0
 19 20  1  0  0  0  0
  8 21  1  0  0  0  0
 21 22  1  0  0  0  0
 22 23  1  0  0  0  0
 23 24  1  0  0  0  0
M  END
> <NMREDATA_VERSION>
1.1

> <NMREDATA_LEVEL>
0

> <NMREDATA_SOLVENT>
CD2Cl2

> <NMREDATA_TEMPERATURE>
200

> <NMREDATA_FORMULA>
C18H37Br2NO2Rh

> <NMREDATA_SMILES>
[O]#C[Rh](C#[O])(Br)Br.CCCCN(CCCC)(CCCC)CCCC

> <NMREDATA_ASSIGNMENT>
Rh1, -4.00, 1

> <NMREDATA_1D_103Rh>
-4.00, L=Rh1

$$$$

  ACD/LABS03122417422D

 24 22  0  0  0  0  0  0  0  0  2 V2000
   11.1528   -9.1738    0.0000 Rh   0  5  0  0  0  0  0  0  0  0  0  0
   11.1528  -11.0807    0.0000 Br   0  0  0  0  0  0  0  0  0  0  0  0
    9.2459   -9.1738    0.0000 Br   0  0  0  0  0  0  0  0  0  0  0  0
   13.0596   -9.1738    0.0000 C    0  0  0  0  0  0  0  0  0  0  0  0
   11.1528   -7.2669    0.0000 C    0  0  0  0  0  0  0  0  0  0  0  0
   14.9665   -9.1738    0.0000 O    0  0  0  0  0  0  0  0  0  0  0  0
   11.1528   -5.3601    0.0000 O    0  0  0  0  0  0  0  0  0  0  0  0
   25.5005   -9.0216    0.0000 N    0  3  0  0  0  0  0  0  0  0  0  0
   27.1380   -8.0761    0.0000 C    0  0  0  0  0  0  0  0  0  0  0  0
   27.1380   -6.1853    0.0000 C    0  0  0  0  0  0  0  0  0  0  0  0
   28.7755   -5.2399    0.0000 C    0  0  0  0  0  0  0  0  0  0  0  0
   28.7755   -3.3490    0.0000 C    0  0  0  0  0  0  0  0  0  0  0  0
   24.5550   -7.3841    0.0000 C    0  0  0  0  0  0  0  0  0  0  0  0
   25.5005   -5.7465    0.0000 C    0  0  0  0  0  0  0  0  0  0  0  0
   24.5550   -4.1090    0.0000 C    0  0  0  0  0  0  0  0  0  0  0  0
   25.5005   -2.4715    0.0000 C    0  0  0  0  0  0  0  0  0  0  0  0
   26.4459  -10.6591    0.0000 C    0  0  0  0  0  0  0  0  0  0  0  0
   25.5005  -12.2966    0.0000 C    0  0  0  0  0  0  0  0  0  0  0  0
   26.4459  -13.9341    0.0000 C    0  0  0  0  0  0  0  0  0  0  0  0
   25.5005  -15.5716    0.0000 C    0  0  0  0  0  0  0  0  0  0  0  0
   23.8629   -9.9670    0.0000 C    0  0  0  0  0  0  0  0  0  0  0  0
   22.2254   -9.0216    0.0000 C    0  0  0  0  0  0  0  0  0  0  0  0
   20.5879   -9.9670    0.0000 C    0  0  0  0  0  0  0  0  0  0  0  0
   18.9504   -9.0216    0.0000 C    0  0  0  0  0  0  0  0  0  0  0  0
  1  2  1  0  0  0  0
  1  3  1  0  0  0  0
  1  4  1  0  0  0  0
  1  5  1  0  0  0  0
  4  6  3  0  0  0  0
  5  7  3  0  0  0  0
  8  9  1  0  0  0  0
  9 10  1  0  0  0  0
 10 11  1  0  0  0  0
 11 12  1  0  0  0  0
  8 13  1  0  0  0  0
 13 14  1  0  0  0  0
 14 15  1  0  0  0  0
 15 16  1  0  0  0  0
  8 17  1  0  0  0  0
 17 18  1  0  0  0  0
 18 19  1  0  0  0  0
 19 20  1  0  0  0  0
  8 21  1  0  0  0  0
 21 22  1  0  0  0  0
 22 23  1  0  0  0  0
 23 24  1  0  0  0  0
M  END
> <NMREDATA_VERSION>
1.1

> <NMREDATA_LEVEL>
0

> <NMREDATA_SOLVENT>
DCCl3

> <NMREDATA_TEMPERATURE>
243

> <NMREDATA_FORMULA>
C18H37Br2NO2Rh

> <NMREDATA_SMILES>
[O]#C[Rh](C#[O])(Br)Br.CCCCN(CCCC)(CCCC)CCCC

> <NMREDATA_ASSIGNMENT>
Rh1, 47.00, 1

> <NMREDATA_1D_103Rh>
47.00, L=Rh1

$$$$

  ACD/LABS03122417442D

 24 22  0  0  0  0  0  0  0  0  2 V2000
   11.1528   -9.1738    0.0000 Rh   0  5  0  0  0  0  0  0  0  0  0  0
   11.1528  -11.0807    0.0000 I    0  0  0  0  0  0  0  0  0  0  0  0
    9.2459   -9.1738    0.0000 Br   0  0  0  0  0  0  0  0  0  0  0  0
   13.0596   -9.1738    0.0000 C    0  0  0  0  0  0  0  0  0  0  0  0
   11.1528   -7.2669    0.0000 C    0  0  0  0  0  0  0  0  0  0  0  0
   14.9665   -9.1738    0.0000 O    0  0  0  0  0  0  0  0  0  0  0  0
   11.1528   -5.3601    0.0000 O    0  0  0  0  0  0  0  0  0  0  0  0
   25.5005   -9.0216    0.0000 N    0  3  0  0  0  0  0  0  0  0  0  0
   27.1380   -8.0761    0.0000 C    0  0  0  0  0  0  0  0  0  0  0  0
   27.1380   -6.1853    0.0000 C    0  0  0  0  0  0  0  0  0  0  0  0
   28.7755   -5.2399    0.0000 C    0  0  0  0  0  0  0  0  0  0  0  0
   28.7755   -3.3490    0.0000 C    0  0  0  0  0  0  0  0  0  0  0  0
   24.5550   -7.3841    0.0000 C    0  0  0  0  0  0  0  0  0  0  0  0
   25.5005   -5.7465    0.0000 C    0  0  0  0  0  0  0  0  0  0  0  0
   24.5550   -4.1090    0.0000 C    0  0  0  0  0  0  0  0  0  0  0  0
   25.5005   -2.4715    0.0000 C    0  0  0  0  0  0  0  0  0  0  0  0
   26.4459  -10.6591    0.0000 C    0  0  0  0  0  0  0  0  0  0  0  0
   25.5005  -12.2966    0.0000 C    0  0  0  0  0  0  0  0  0  0  0  0
   26.4459  -13.9341    0.0000 C    0  0  0  0  0  0  0  0  0  0  0  0
   25.5005  -15.5716    0.0000 C    0  0  0  0  0  0  0  0  0  0  0  0
   23.8629   -9.9670    0.0000 C    0  0  0  0  0  0  0  0  0  0  0  0
   22.2254   -9.0216    0.0000 C    0  0  0  0  0  0  0  0  0  0  0  0
   20.5879   -9.9670    0.0000 C    0  0  0  0  0  0  0  0  0  0  0  0
   18.9504   -9.0216    0.0000 C    0  0  0  0  0  0  0  0  0  0  0  0
  1  2  1  0  0  0  0
  1  3  1  0  0  0  0
  1  4  1  0  0  0  0
  1  5  1  0  0  0  0
  4  6  3  0  0  0  0
  5  7  3  0  0  0  0
  8  9  1  0  0  0  0
  9 10  1  0  0  0  0
 10 11  1  0  0  0  0
 11 12  1  0  0  0  0
  8 13  1  0  0  0  0
 13 14  1  0  0  0  0
 14 15  1  0  0  0  0
 15 16  1  0  0  0  0
  8 17  1  0  0  0  0
 17 18  1  0  0  0  0
 18 19  1  0  0  0  0
 19 20  1  0  0  0  0
  8 21  1  0  0  0  0
 21 22  1  0  0  0  0
 22 23  1  0  0  0  0
 23 24  1  0  0  0  0
M  END
> <NMREDATA_VERSION>
1.1

> <NMREDATA_LEVEL>
0

> <NMREDATA_SOLVENT>
CD2Cl2

> <NMREDATA_TEMPERATURE>
200

> <NMREDATA_FORMULA>
C18H37BrINO2Rh

> <NMREDATA_SMILES>
[O]#C[Rh](C#[O])(I)Br.CCCCN(CCCC)(CCCC)CCCC

> <NMREDATA_ASSIGNMENT>
Rh1, -103.00, 1

> <NMREDATA_1D_103Rh>
-103.00, L=Rh1

$$$$

  ACD/LABS03122417452D

 24 22  0  0  0  0  0  0  0  0  2 V2000
   11.1528   -9.1738    0.0000 Rh   0  5  0  0  0  0  0  0  0  0  0  0
   11.1528  -11.0807    0.0000 I    0  0  0  0  0  0  0  0  0  0  0  0
    9.2459   -9.1738    0.0000 I    0  0  0  0  0  0  0  0  0  0  0  0
   13.0596   -9.1738    0.0000 C    0  0  0  0  0  0  0  0  0  0  0  0
   11.1528   -7.2669    0.0000 C    0  0  0  0  0  0  0  0  0  0  0  0
   14.9665   -9.1738    0.0000 O    0  0  0  0  0  0  0  0  0  0  0  0
   11.1528   -5.3601    0.0000 O    0  0  0  0  0  0  0  0  0  0  0  0
   25.5005   -9.0216    0.0000 N    0  3  0  0  0  0  0  0  0  0  0  0
   27.1380   -8.0761    0.0000 C    0  0  0  0  0  0  0  0  0  0  0  0
   27.1380   -6.1853    0.0000 C    0  0  0  0  0  0  0  0  0  0  0  0
   28.7755   -5.2399    0.0000 C    0  0  0  0  0  0  0  0  0  0  0  0
   28.7755   -3.3490    0.0000 C    0  0  0  0  0  0  0  0  0  0  0  0
   24.5550   -7.3841    0.0000 C    0  0  0  0  0  0  0  0  0  0  0  0
   25.5005   -5.7465    0.0000 C    0  0  0  0  0  0  0  0  0  0  0  0
   24.5550   -4.1090    0.0000 C    0  0  0  0  0  0  0  0  0  0  0  0
   25.5005   -2.4715    0.0000 C    0  0  0  0  0  0  0  0  0  0  0  0
   26.4459  -10.6591    0.0000 C    0  0  0  0  0  0  0  0  0  0  0  0
   25.5005  -12.2966    0.0000 C    0  0  0  0  0  0  0  0  0  0  0  0
   26.4459  -13.9341    0.0000 C    0  0  0  0  0  0  0  0  0  0  0  0
   25.5005  -15.5716    0.0000 C    0  0  0  0  0  0  0  0  0  0  0  0
   23.8629   -9.9670    0.0000 C    0  0  0  0  0  0  0  0  0  0  0  0
   22.2254   -9.0216    0.0000 C    0  0  0  0  0  0  0  0  0  0  0  0
   20.5879   -9.9670    0.0000 C    0  0  0  0  0  0  0  0  0  0  0  0
   18.9504   -9.0216    0.0000 C    0  0  0  0  0  0  0  0  0  0  0  0
  1  2  1  0  0  0  0
  1  3  1  0  0  0  0
  1  4  1  0  0  0  0
  1  5  1  0  0  0  0
  4  6  3  0  0  0  0
  5  7  3  0  0  0  0
  8  9  1  0  0  0  0
  9 10  1  0  0  0  0
 10 11  1  0  0  0  0
 11 12  1  0  0  0  0
  8 13  1  0  0  0  0
 13 14  1  0  0  0  0
 14 15  1  0  0  0  0
 15 16  1  0  0  0  0
  8 17  1  0  0  0  0
 17 18  1  0  0  0  0
 18 19  1  0  0  0  0
 19 20  1  0  0  0  0
  8 21  1  0  0  0  0
 21 22  1  0  0  0  0
 22 23  1  0  0  0  0
 23 24  1  0  0  0  0
M  END
> <NMREDATA_VERSION>
1.1

> <NMREDATA_LEVEL>
0

> <NMREDATA_SOLVENT>
CD2Cl2

> <NMREDATA_TEMPERATURE>
200

> <NMREDATA_FORMULA>
C18H37I2NO2Rh

> <NMREDATA_SMILES>
[O]#C[Rh](C#[O])(I)I.CCCCN(CCCC)(CCCC)CCCC

> <NMREDATA_ASSIGNMENT>
Rh1, 221.00, 1

> <NMREDATA_1D_103Rh>
221.00, L=Rh1

$$$$

  ACD/LABS03122418152D

 18 17  0  0  0  0  0  0  0  0  1 V2000
    9.0011  -11.8381    0.0000 P    0  0  0  0  0  0  0  0  0  0  0  0
   10.6401  -11.4884    0.0000 C    0  0  0  0  0  0  0  0  0  0  0  0
    7.3871  -12.1894    0.0000 C    0  0  0  0  0  0  0  0  0  0  0  0
    9.3563  -13.4675    0.0000 C    0  0  0  0  0  0  0  0  0  0  0  0
    8.9371   -6.7713    0.0000 P    0  0  0  0  0  0  0  0  0  0  0  0
   10.3095   -7.7049    0.0000 C    0  0  0  0  0  0  0  0  0  0  0  0
    7.5491   -5.8418    0.0000 C    0  0  0  0  0  0  0  0  0  0  0  0
    9.8611   -5.3929    0.0000 C    0  0  0  0  0  0  0  0  0  0  0  0
    6.8191   -9.1284    0.0000 P    0  0  0  0  0  0  0  0  0  0  0  0
    7.8830  -10.3970    0.0000 C    0  0  0  0  0  0  0  0  0  0  0  0
    5.7513   -7.8444    0.0000 C    0  0  0  0  0  0  0  0  0  0  0  0
    5.5409  -10.1868    0.0000 C    0  0  0  0  0  0  0  0  0  0  0  0
    8.2576   -8.3037    0.0000 Rh   0  0  0  0  0  0  0  0  0  0  0  0
    7.0206   -7.1791    0.0000 H    0  0  0  0  0  0  0  0  0  0  0  0
   11.8544   -8.6739    0.0000 P    0  0  0  0  0  0  0  0  0  0  0  0
   11.6802  -10.3313    0.0000 C    0  0  0  0  0  0  0  0  0  0  0  0
   12.0287   -7.0166    0.0000 C    0  0  0  0  0  0  0  0  0  0  0  0
   13.5118   -8.8480    0.0000 C    0  0  0  0  0  0  0  0  0  0  0  0
  1  2  1  0  0  0  0
  1  3  1  0  0  0  0
  1  4  1  0  0  0  0
  5  6  1  0  0  0  0
  5  7  1  0  0  0  0
  5  8  1  0  0  0  0
  9 10  1  0  0  0  0
  9 11  1  0  0  0  0
  9 12  1  0  0  0  0
 13 14  1  0  0  0  0
 13 15  1  0  0  0  0
 15 16  1  0  0  0  0
 15 17  1  0  0  0  0
 15 18  1  0  0  0  0
  9 13  1  0  0  0  0
  5 13  1  0  0  0  0
  1 13  1  0  0  0  0
M  END
> <NMREDATA_VERSION>
1.1

> <NMREDATA_LEVEL>
0

> <NMREDATA_SOLVENT>
C6D6

> <NMREDATA_TEMPERATURE>
293

> <NMREDATA_FORMULA>
C12H41P4Rh

> <NMREDATA_SMILES>
CP([RhH](P(C)(C)C)(P(C)(C)C)P(C)(C)C)(C)C

> <NMREDATA_ASSIGNMENT>
Rh13, -735.00, 13

> <NMREDATA_1D_103Rh>
-735.00, L=Rh13

$$$$

  ACD/LABS03122418202D

 50 55  0  0  0  0  0  0  0  0  1 V2000
   16.3251   -9.4167    0.0000 P    0  0  0  0  0  0  0  0  0  0  0  0
   21.6411   -3.4893    0.0000 C    0  0  0  0  0  0  0  0  0  0  0  0
   22.3064   -4.6412    0.0000 C    0  0  0  0  0  0  0  0  0  0  0  0
   20.3105   -3.4889    0.0000 C    0  0  0  0  0  0  0  0  0  0  0  0
   21.6415   -5.7929    0.0000 C    0  0  0  0  0  0  0  0  0  0  0  0
   19.6456   -4.6406    0.0000 C    0  0  0  0  0  0  0  0  0  0  0  0
   20.3115   -5.7924    0.0000 C    0  0  0  0  0  0  0  0  0  0  0  0
   20.3129  -10.3990    0.0000 C    0  0  0  0  0  0  0  0  0  0  0  0
   19.6471   -9.2473    0.0000 C    0  0  0  0  0  0  0  0  0  0  0  0
   21.6429  -10.3996    0.0000 C    0  0  0  0  0  0  0  0  0  0  0  0
   20.3120   -8.0956    0.0000 C    0  0  0  0  0  0  0  0  0  0  0  0
   22.3079   -9.2479    0.0000 C    0  0  0  0  0  0  0  0  0  0  0  0
   21.6424   -8.0964    0.0000 C    0  0  0  0  0  0  0  0  0  0  0  0
   17.6512   -8.0950    0.0000 P    0  0  0  0  0  0  0  0  0  0  0  0
   18.3171   -9.2467    0.0000 C    0  0  0  0  0  0  0  0  0  0  0  0
   19.6465   -6.9441    0.0000 P    0  0  0  0  0  0  0  0  0  0  0  0
   15.0111   -8.0950    0.0000 P    0  0  0  0  0  0  0  0  0  0  0  0
   14.3464   -9.2464    0.0000 C    0  0  0  0  0  0  0  0  0  0  0  0
   16.3212   -8.0944    0.0000 Rh   0  0  0  0  0  0  0  0  0  0  0  0
   16.3295   -6.7689    0.0000 H    0  0  0  0  0  0  0  0  0  0  0  0
   14.3411   -6.9512    0.0000 C    0  0  0  0  0  0  0  0  0  0  0  0
   11.0141   -3.4953    0.0000 C    0  0  0  0  0  0  0  0  0  0  0  0
   12.3444   -3.4955    0.0000 C    0  0  0  0  0  0  0  0  0  0  0  0
   10.3494   -4.6466    0.0000 C    0  0  0  0  0  0  0  0  0  0  0  0
   13.0100   -4.6476    0.0000 C    0  0  0  0  0  0  0  0  0  0  0  0
   11.0194   -5.7904    0.0000 C    0  0  0  0  0  0  0  0  0  0  0  0
   12.3453   -5.7989    0.0000 C    0  0  0  0  0  0  0  0  0  0  0  0
   10.3556   -9.2452    0.0000 C    0  0  0  0  0  0  0  0  0  0  0  0
   11.0203   -8.0939    0.0000 C    0  0  0  0  0  0  0  0  0  0  0  0
   11.0208  -10.3971    0.0000 C    0  0  0  0  0  0  0  0  0  0  0  0
   12.3505   -8.0941    0.0000 C    0  0  0  0  0  0  0  0  0  0  0  0
   12.3514  -10.3975    0.0000 C    0  0  0  0  0  0  0  0  0  0  0  0
   13.0161   -9.2462    0.0000 C    0  0  0  0  0  0  0  0  0  0  0  0
   13.0152   -6.9427    0.0000 P    0  0  0  0  0  0  0  0  0  0  0  0
   11.7296  -13.4063    0.0000 C    0  0  0  0  0  0  0  0  0  0  0  0
   11.7303  -12.0760    0.0000 C    0  0  0  0  0  0  0  0  0  0  0  0
   12.8732  -14.0666    0.0000 C    0  0  0  0  0  0  0  0  0  0  0  0
   12.8821  -11.4101    0.0000 C    0  0  0  0  0  0  0  0  0  0  0  0
   14.0249  -13.4007    0.0000 C    0  0  0  0  0  0  0  0  0  0  0  0
   14.0257  -12.0704    0.0000 C    0  0  0  0  0  0  0  0  0  0  0  0
   17.4801  -14.0647    0.0000 C    0  0  0  0  0  0  0  0  0  0  0  0
   16.3287  -13.4000    0.0000 C    0  0  0  0  0  0  0  0  0  0  0  0
   18.6320  -13.3995    0.0000 C    0  0  0  0  0  0  0  0  0  0  0  0
   16.3289  -12.0698    0.0000 C    0  0  0  0  0  0  0  0  0  0  0  0
   18.6279  -12.0766    0.0000 C    0  0  0  0  0  0  0  0  0  0  0  0
   17.4766  -11.4119    0.0000 C    0  0  0  0  0  0  0  0  0  0  0  0
   15.1736  -10.0822    0.0000 C    0  0  0  0  0  0  0  0  0  0  0  0
   15.1728  -11.4126    0.0000 P    0  0  0  0  0  0  0  0  0  0  0  0
   17.4768  -10.0817    0.0000 C    0  0  0  0  0  0  0  0  0  0  0  0
   18.3162   -6.9433    0.0000 C    0  0  0  0  0  0  0  0  0  0  0  0
  2  3  1  0  0  0  0
  2  4  2  0  0  0  0
  3  5  2  0  0  0  0
  4  6  1  0  0  0  0
  5  7  1  0  0  0  0
  6  7  2  0  0  0  0
  8  9  1  0  0  0  0
  8 10  2  0  0  0  0
  9 11  2  0  0  0  0
 10 12  1  0  0  0  0
 11 13  1  0  0  0  0
 12 13  2  0  0  0  0
 14 15  2  0  0  0  0
 11 16  1  0  0  0  0
  7 16  1  0  0  0  0
 17 18  2  0  0  0  0
 19 20  1  0  0  0  0
 17 19  1  0  0  0  0
 14 19  1  0  0  0  0
  1 19  1  0  0  0  0
 17 21  1  0  0  0  0
 22 23  1  0  0  0  0
 22 24  2  0  0  0  0
 23 25  2  0  0  0  0
 24 26  1  0  0  0  0
 25 27  1  0  0  0  0
 26 27  2  0  0  0  0
 28 29  1  0  0  0  0
 28 30  2  0  0  0  0
 29 31  2  0  0  0  0
 30 32  1  0  0  0  0
 31 33  1  0  0  0  0
 32 33  2  0  0  0  0
 31 34  1  0  0  0  0
 27 34  1  0  0  0  0
 21 34  1  0  0  0  0
 35 36  1  0  0  0  0
 35 37  2  0  0  0  0
 36 38  2  0  0  0  0
 37 39  1  0  0  0  0
 38 40  1  0  0  0  0
 39 40  2  0  0  0  0
 41 42  1  0  0  0  0
 41 43  2  0  0  0  0
 42 44  2  0  0  0  0
 43 45  1  0  0  0  0
 44 46  1  0  0  0  0
 45 46  2  0  0  0  0
 47 48  1  0  0  0  0
 44 48  1  0  0  0  0
 40 48  1  0  0  0  0
  1 47  1  0  0  0  0
 49  1  2  0  0  0  0
 14 50  1  0  0  0  0
 50 16  1  0  0  0  0
M  END
> <NMREDATA_VERSION>
1.1

> <NMREDATA_LEVEL>
0

> <NMREDATA_SOLVENT>
CD2Cl2

> <NMREDATA_TEMPERATURE>
293

> <NMREDATA_FORMULA>
C42H46P6Rh

> <NMREDATA_SMILES>
C=P([RhH](P(=C)CP(c1ccccc1)c1ccccc1)P(=C)CP(c1ccccc1)c1ccccc1)CP(c1ccccc1)c1ccccc1

> <NMREDATA_ASSIGNMENT>
Rh19, -58.00, 19

> <NMREDATA_1D_103Rh>
-58.00, L=Rh19

$$$$

  ACD/LABS03122418212D

 50 55  0  0  0  0  0  0  0  0  1 V2000
   16.3251   -9.4167    0.0000 N    0  0  0  0  0  0  0  0  0  0  0  0
   21.6411   -3.4893    0.0000 C    0  0  0  0  0  0  0  0  0  0  0  0
   22.3064   -4.6412    0.0000 C    0  0  0  0  0  0  0  0  0  0  0  0
   20.3105   -3.4889    0.0000 C    0  0  0  0  0  0  0  0  0  0  0  0
   21.6415   -5.7929    0.0000 C    0  0  0  0  0  0  0  0  0  0  0  0
   19.6456   -4.6406    0.0000 C    0  0  0  0  0  0  0  0  0  0  0  0
   20.3115   -5.7924    0.0000 C    0  0  0  0  0  0  0  0  0  0  0  0
   20.3129  -10.3990    0.0000 C    0  0  0  0  0  0  0  0  0  0  0  0
   19.6471   -9.2473    0.0000 C    0  0  0  0  0  0  0  0  0  0  0  0
   21.6429  -10.3996    0.0000 C    0  0  0  0  0  0  0  0  0  0  0  0
   20.3120   -8.0956    0.0000 C    0  0  0  0  0  0  0  0  0  0  0  0
   22.3079   -9.2479    0.0000 C    0  0  0  0  0  0  0  0  0  0  0  0
   21.6424   -8.0964    0.0000 C    0  0  0  0  0  0  0  0  0  0  0  0
   17.6512   -8.0950    0.0000 N    0  0  0  0  0  0  0  0  0  0  0  0
   18.3171   -9.2467    0.0000 C    0  0  0  0  0  0  0  0  0  0  0  0
   19.6465   -6.9441    0.0000 P    0  0  0  0  0  0  0  0  0  0  0  0
   15.0111   -8.0950    0.0000 N    0  0  0  0  0  0  0  0  0  0  0  0
   14.3464   -9.2464    0.0000 C    0  0  0  0  0  0  0  0  0  0  0  0
   16.3212   -8.0944    0.0000 Rh   0  0  0  0  0  0  0  0  0  0  0  0
   16.3295   -6.7689    0.0000 H    0  0  0  0  0  0  0  0  0  0  0  0
   14.3411   -6.9512    0.0000 C    0  0  0  0  0  0  0  0  0  0  0  0
   11.0141   -3.4953    0.0000 C    0  0  0  0  0  0  0  0  0  0  0  0
   12.3444   -3.4955    0.0000 C    0  0  0  0  0  0  0  0  0  0  0  0
   10.3494   -4.6466    0.0000 C    0  0  0  0  0  0  0  0  0  0  0  0
   13.0100   -4.6476    0.0000 C    0  0  0  0  0  0  0  0  0  0  0  0
   11.0194   -5.7904    0.0000 C    0  0  0  0  0  0  0  0  0  0  0  0
   12.3453   -5.7989    0.0000 C    0  0  0  0  0  0  0  0  0  0  0  0
   10.3556   -9.2452    0.0000 C    0  0  0  0  0  0  0  0  0  0  0  0
   11.0203   -8.0939    0.0000 C    0  0  0  0  0  0  0  0  0  0  0  0
   11.0208  -10.3971    0.0000 C    0  0  0  0  0  0  0  0  0  0  0  0
   12.3505   -8.0941    0.0000 C    0  0  0  0  0  0  0  0  0  0  0  0
   12.3514  -10.3975    0.0000 C    0  0  0  0  0  0  0  0  0  0  0  0
   13.0161   -9.2462    0.0000 C    0  0  0  0  0  0  0  0  0  0  0  0
   13.0152   -6.9427    0.0000 P    0  0  0  0  0  0  0  0  0  0  0  0
   11.7296  -13.4063    0.0000 C    0  0  0  0  0  0  0  0  0  0  0  0
   11.7303  -12.0760    0.0000 C    0  0  0  0  0  0  0  0  0  0  0  0
   12.8732  -14.0666    0.0000 C    0  0  0  0  0  0  0  0  0  0  0  0
   12.8821  -11.4101    0.0000 C    0  0  0  0  0  0  0  0  0  0  0  0
   14.0249  -13.4007    0.0000 C    0  0  0  0  0  0  0  0  0  0  0  0
   14.0257  -12.0704    0.0000 C    0  0  0  0  0  0  0  0  0  0  0  0
   17.4801  -14.0647    0.0000 C    0  0  0  0  0  0  0  0  0  0  0  0
   16.3287  -13.4000    0.0000 C    0  0  0  0  0  0  0  0  0  0  0  0
   18.6320  -13.3995    0.0000 C    0  0  0  0  0  0  0  0  0  0  0  0
   16.3289  -12.0698    0.0000 C    0  0  0  0  0  0  0  0  0  0  0  0
   18.6279  -12.0766    0.0000 C    0  0  0  0  0  0  0  0  0  0  0  0
   17.4766  -11.4119    0.0000 C    0  0  0  0  0  0  0  0  0  0  0  0
   15.1736  -10.0822    0.0000 C    0  0  0  0  0  0  0  0  0  0  0  0
   15.1728  -11.4126    0.0000 P    0  0  0  0  0  0  0  0  0  0  0  0
   17.4768  -10.0817    0.0000 C    0  0  0  0  0  0  0  0  0  0  0  0
   18.3162   -6.9433    0.0000 C    0  0  0  0  0  0  0  0  0  0  0  0
  2  3  1  0  0  0  0
  2  4  2  0  0  0  0
  3  5  2  0  0  0  0
  4  6  1  0  0  0  0
  5  7  1  0  0  0  0
  6  7  2  0  0  0  0
  8  9  1  0  0  0  0
  8 10  2  0  0  0  0
  9 11  2  0  0  0  0
 10 12  1  0  0  0  0
 11 13  1  0  0  0  0
 12 13  2  0  0  0  0
 14 15  2  0  0  0  0
 11 16  1  0  0  0  0
  7 16  1  0  0  0  0
 17 18  2  0  0  0  0
 19 20  1  0  0  0  0
 17 19  1  0  0  0  0
 14 19  1  0  0  0  0
  1 19  1  0  0  0  0
 17 21  1  0  0  0  0
 22 23  1  0  0  0  0
 22 24  2  0  0  0  0
 23 25  2  0  0  0  0
 24 26  1  0  0  0  0
 25 27  1  0  0  0  0
 26 27  2  0  0  0  0
 28 29  1  0  0  0  0
 28 30  2  0  0  0  0
 29 31  2  0  0  0  0
 30 32  1  0  0  0  0
 31 33  1  0  0  0  0
 32 33  2  0  0  0  0
 31 34  1  0  0  0  0
 27 34  1  0  0  0  0
 21 34  1  0  0  0  0
 35 36  1  0  0  0  0
 35 37  2  0  0  0  0
 36 38  2  0  0  0  0
 37 39  1  0  0  0  0
 38 40  1  0  0  0  0
 39 40  2  0  0  0  0
 41 42  1  0  0  0  0
 41 43  2  0  0  0  0
 42 44  2  0  0  0  0
 43 45  1  0  0  0  0
 44 46  1  0  0  0  0
 45 46  2  0  0  0  0
 47 48  1  0  0  0  0
 44 48  1  0  0  0  0
 40 48  1  0  0  0  0
  1 47  1  0  0  0  0
 49  1  2  0  0  0  0
 14 50  1  0  0  0  0
 50 16  1  0  0  0  0
M  END
> <NMREDATA_VERSION>
1.1

> <NMREDATA_LEVEL>
0

> <NMREDATA_SOLVENT>
CD2Cl2

> <NMREDATA_TEMPERATURE>
293

> <NMREDATA_FORMULA>
C42H46N3P3Rh

> <NMREDATA_SMILES>
C=N([RhH](N(=C)CP(c1ccccc1)c1ccccc1)N(=C)CP(c1ccccc1)c1ccccc1)CP(c1ccccc1)c1ccccc1

> <NMREDATA_ASSIGNMENT>
Rh19, -266.00, 19

> <NMREDATA_1D_103Rh>
-266.00, L=Rh19

$$$$

  ACD/LABS03122418222D

 22 20  0  0  0  0  0  0  0  0  2 V2000
   13.1997   -8.4085    0.0000 Rh   0  3  0  0  0  0  0  0  0  0  0  0
   12.4225   -7.0624    0.0000 P    0  0  0  0  0  0  0  0  0  0  0  0
   11.6454   -5.7163    0.0000 C    0  0  0  0  0  0  0  0  0  0  0  0
   11.0764   -7.8396    0.0000 C    0  0  0  0  0  0  0  0  0  0  0  0
   13.7686   -6.2852    0.0000 C    0  0  0  0  0  0  0  0  0  0  0  0
   15.1147   -7.0624    0.0000 C    0  0  0  0  0  0  0  0  0  0  0  0
   16.4608   -6.2852    0.0000 P    0  0  0  0  0  0  0  0  0  0  0  0
   16.4608   -4.7309    0.0000 C    0  0  0  0  0  0  0  0  0  0  0  0
   17.8069   -7.0624    0.0000 C    0  0  0  0  0  0  0  0  0  0  0  0
   12.4225   -9.7546    0.0000 P    0  0  0  0  0  0  0  0  0  0  0  0
   11.0764   -8.9774    0.0000 C    0  0  0  0  0  0  0  0  0  0  0  0
   13.7686  -10.5318    0.0000 C    0  0  0  0  0  0  0  0  0  0  0  0
   11.6454  -11.1007    0.0000 C    0  0  0  0  0  0  0  0  0  0  0  0
   12.4225  -12.4468    0.0000 C    0  0  0  0  0  0  0  0  0  0  0  0
   11.6454  -13.7929    0.0000 P    0  0  0  0  0  0  0  0  0  0  0  0
   12.4225  -15.1390    0.0000 C    0  0  0  0  0  0  0  0  0  0  0  0
   10.0910  -13.7929    0.0000 C    0  0  0  0  0  0  0  0  0  0  0  0
   22.0732   -8.1963    0.0000 Cl   0  0  0  0  0  0  0  0  0  0  0  0
   21.4322   -7.0861    0.0000 O    0  0  0  0  0  0  0  0  0  0  0  0
   23.1834   -7.5554    0.0000 O    0  0  0  0  0  0  0  0  0  0  0  0
   20.9630   -8.8373    0.0000 O    0  0  0  0  0  0  0  0  0  0  0  0
   22.7142   -9.3065    0.0000 O    0  5  0  0  0  0  0  0  0  0  0  0
  1  2  1  0  0  0  0
  2  3  1  0  0  0  0
  2  4  1  0  0  0  0
  2  5  1  0  0  0  0
  5  6  1  0  0  0  0
  6  7  1  0  0  0  0
  7  8  1  0  0  0  0
  7  9  1  0  0  0  0
 10 11  1  0  0  0  0
 10 12  1  0  0  0  0
 10 13  1  0  0  0  0
 13 14  1  0  0  0  0
 14 15  1  0  0  0  0
 15 16  1  0  0  0  0
 15 17  1  0  0  0  0
  1 10  1  0  0  0  0
 18 19  2  0  0  0  0
 18 20  2  0  0  0  0
 18 21  2  0  0  0  0
 18 22  1  0  0  0  0
M  END
> <NMREDATA_VERSION>
1.1

> <NMREDATA_LEVEL>
0

> <NMREDATA_SOLVENT>
CD2Cl2

> <NMREDATA_TEMPERATURE>
298

> <NMREDATA_FORMULA>
C12H35ClO4P4Rh

> <NMREDATA_SMILES>
O[Cl](=O)(=O)=O.CP(CCP([Rh]P(CCP(C)C)(C)C)(C)C)C

> <NMREDATA_ASSIGNMENT>
Rh1, -901.00, 1

> <NMREDATA_1D_103Rh>
-901.00, L=Rh1

$$$$

  ACD/LABS03122418232D

 30 28  0  0  0  0  0  0  0  0  2 V2000
   13.1997   -8.4085    0.0000 Rh   0  3  0  0  0  0  0  0  0  0  0  0
   12.4225   -7.0624    0.0000 P    0  0  0  0  0  0  0  0  0  0  0  0
   11.6454   -5.7163    0.0000 C    0  0  0  0  0  0  0  0  0  0  0  0
   11.0764   -7.8396    0.0000 C    0  0  0  0  0  0  0  0  0  0  0  0
   13.7686   -6.2852    0.0000 C    0  0  0  0  0  0  0  0  0  0  0  0
   15.1147   -7.0624    0.0000 C    0  0  0  0  0  0  0  0  0  0  0  0
   16.4608   -6.2852    0.0000 P    0  0  0  0  0  0  0  0  0  0  0  0
   16.4608   -4.7309    0.0000 C    0  0  0  0  0  0  0  0  0  0  0  0
   17.8069   -7.0624    0.0000 C    0  0  0  0  0  0  0  0  0  0  0  0
   12.4225   -9.7546    0.0000 P    0  0  0  0  0  0  0  0  0  0  0  0
   11.0764   -8.9774    0.0000 C    0  0  0  0  0  0  0  0  0  0  0  0
   13.7686  -10.5318    0.0000 C    0  0  0  0  0  0  0  0  0  0  0  0
   11.6454  -11.1007    0.0000 C    0  0  0  0  0  0  0  0  0  0  0  0
   12.4225  -12.4468    0.0000 C    0  0  0  0  0  0  0  0  0  0  0  0
   11.6454  -13.7929    0.0000 P    0  0  0  0  0  0  0  0  0  0  0  0
   12.4225  -15.1390    0.0000 C    0  0  0  0  0  0  0  0  0  0  0  0
   10.0910  -13.7929    0.0000 C    0  0  0  0  0  0  0  0  0  0  0  0
   12.4225   -4.3702    0.0000 C    0  0  0  0  0  0  0  0  0  0  0  0
   17.8069   -3.9537    0.0000 C    0  0  0  0  0  0  0  0  0  0  0  0
   17.8069   -8.6167    0.0000 C    0  0  0  0  0  0  0  0  0  0  0  0
    9.7304   -7.0624    0.0000 C    0  0  0  0  0  0  0  0  0  0  0  0
   11.0764   -7.4231    0.0000 C    0  0  0  0  0  0  0  0  0  0  0  0
   13.7686  -12.0861    0.0000 C    0  0  0  0  0  0  0  0  0  0  0  0
    9.3139  -12.4468    0.0000 C    0  0  0  0  0  0  0  0  0  0  0  0
   11.6454  -16.4851    0.0000 C    0  0  0  0  0  0  0  0  0  0  0  0
   22.0732   -8.1963    0.0000 Cl   0  0  0  0  0  0  0  0  0  0  0  0
   21.4322   -7.0861    0.0000 O    0  0  0  0  0  0  0  0  0  0  0  0
   23.1834   -7.5554    0.0000 O    0  0  0  0  0  0  0  0  0  0  0  0
   20.9630   -8.8373    0.0000 O    0  0  0  0  0  0  0  0  0  0  0  0
   22.7142   -9.3065    0.0000 O    0  5  0  0  0  0  0  0  0  0  0  0
  1  2  1  0  0  0  0
  2  3  1  0  0  0  0
  2  4  1  0  0  0  0
  2  5  1  0  0  0  0
  5  6  1  0  0  0  0
  6  7  1  0  0  0  0
  7  8  1  0  0  0  0
  7  9  1  0  0  0  0
 10 11  1  0  0  0  0
 10 12  1  0  0  0  0
 10 13  1  0  0  0  0
 13 14  1  0  0  0  0
 14 15  1  0  0  0  0
 15 16  1  0  0  0  0
 15 17  1  0  0  0  0
  1 10  1  0  0  0  0
  3 18  1  0  0  0  0
  8 19  1  0  0  0  0
  9 20  1  0  0  0  0
  4 21  1  0  0  0  0
 11 22  1  0  0  0  0
 12 23  1  0  0  0  0
 17 24  1  0  0  0  0
 16 25  1  0  0  0  0
 26 27  2  0  0  0  0
 26 28  2  0  0  0  0
 26 29  2  0  0  0  0
 26 30  1  0  0  0  0
M  END
> <NMREDATA_VERSION>
1.1

> <NMREDATA_LEVEL>
0

> <NMREDATA_SOLVENT>
CD2Cl2

> <NMREDATA_TEMPERATURE>
298

> <NMREDATA_FORMULA>
C20H51ClO4P4Rh

> <NMREDATA_SMILES>
O[Cl](=O)(=O)=O.CCP(CCP([Rh]P(CCP(CC)CC)(CC)CC)(CC)CC)CC

> <NMREDATA_ASSIGNMENT>
Rh1, -1353.00, 1

> <NMREDATA_1D_103Rh>
-1353.00, L=Rh1

$$$$

  ACD/LABS03122418252D

 35 33  0  0  0  0  0  0  0  0  2 V2000
   22.0732   -8.1963    0.0000 Cl   0  0  0  0  0  0  0  0  0  0  0  0
   21.4322   -7.0861    0.0000 O    0  0  0  0  0  0  0  0  0  0  0  0
   23.1834   -7.5554    0.0000 O    0  0  0  0  0  0  0  0  0  0  0  0
   20.9630   -8.8373    0.0000 O    0  0  0  0  0  0  0  0  0  0  0  0
   22.7142   -9.3065    0.0000 O    0  5  0  0  0  0  0  0  0  0  0  0
    6.9276  -19.3230    0.0000 P    0  0  0  0  0  0  0  0  0  0  0  0
    5.5911  -18.5514    0.0000 C    0  0  0  0  0  0  0  0  0  0  0  0
    6.9265  -20.8773    0.0000 C    0  0  0  0  0  0  0  0  0  0  0  0
    4.2450  -19.3291    0.0000 C    0  0  0  0  0  0  0  0  0  0  0  0
    5.5806  -21.6560    0.0000 C    0  0  0  0  0  0  0  0  0  0  0  0
    8.2731  -18.5449    0.0000 C    0  0  0  0  0  0  0  0  0  0  0  0
    8.2742  -16.9905    0.0000 C    0  0  0  0  0  0  0  0  0  0  0  0
    9.6198  -16.2124    0.0000 C    0  0  0  0  0  0  0  0  0  0  0  0
    9.6208  -14.6581    0.0000 C    0  0  0  0  0  0  0  0  0  0  0  0
   10.9664  -13.8800    0.0000 C    0  0  0  0  0  0  0  0  0  0  0  0
   10.9675  -12.3257    0.0000 P    0  0  0  0  0  0  0  0  0  0  0  0
    9.4221  -12.3306    0.0000 C    0  0  0  0  0  0  0  0  0  0  0  0
    8.6443  -10.9844    0.0000 C    0  0  0  0  0  0  0  0  0  0  0  0
   12.5072  -12.3307    0.0000 C    0  0  0  0  0  0  0  0  0  0  0  0
   16.3433   -3.0145    0.0000 P    0  0  0  0  0  0  0  0  0  0  0  0
   14.9982   -2.2379    0.0000 C    0  0  0  0  0  0  0  0  0  0  0  0
   17.6805   -2.2308    0.0000 C    0  0  0  0  0  0  0  0  0  0  0  0
   14.9990   -0.6826    0.0000 C    0  0  0  0  0  0  0  0  0  0  0  0
   19.0263   -3.0077    0.0000 C    0  0  0  0  0  0  0  0  0  0  0  0
   16.3335   -4.5638    0.0000 C    0  0  0  0  0  0  0  0  0  0  0  0
   14.9966   -5.3469    0.0000 C    0  0  0  0  0  0  0  0  0  0  0  0
   14.9869   -6.8963    0.0000 C    0  0  0  0  0  0  0  0  0  0  0  0
   13.6500   -7.6794    0.0000 C    0  0  0  0  0  0  0  0  0  0  0  0
   13.6403   -9.2287    0.0000 C    0  0  0  0  0  0  0  0  0  0  0  0
   12.3034  -10.0118    0.0000 P    0  0  0  0  0  0  0  0  0  0  0  0
   10.9665  -10.7949    0.0000 Rh   0  3  0  0  0  0  0  0  0  0  0  0
   13.0718  -11.3526    0.0000 C    0  0  0  0  0  0  0  0  0  0  0  0
   14.6265  -11.3531    0.0000 C    0  0  0  0  0  0  0  0  0  0  0  0
   11.5349   -8.6710    0.0000 C    0  0  0  0  0  0  0  0  0  0  0  0
    9.9802   -8.6705    0.0000 C    0  0  0  0  0  0  0  0  0  0  0  0
  1  2  2  0  0  0  0
  1  3  2  0  0  0  0
  1  4  2  0  0  0  0
  1  5  1  0  0  0  0
  6  7  1  0  0  0  0
  6  8  1  0  0  0  0
  7  9  1  0  0  0  0
  8 10  1  0  0  0  0
  6 11  1  0  0  0  0
 11 12  1  0  0  0  0
 12 13  1  0  0  0  0
 13 14  1  0  0  0  0
 14 15  1  0  0  0  0
 15 16  1  0  0  0  0
 16 17  1  0  0  0  0
 17 18  1  0  0  0  0
 16 19  1  0  0  0  0
 20 21  1  0  0  0  0
 20 22  1  0  0  0  0
 21 23  1  0  0  0  0
 22 24  1  0  0  0  0
 20 25  1  0  0  0  0
 25 26  1  0  0  0  0
 26 27  1  0  0  0  0
 27 28  1  0  0  0  0
 28 29  1  0  0  0  0
 29 30  1  0  0  0  0
 30 31  1  0  0  0  0
 30 32  1  0  0  0  0
 32 33  1  0  0  0  0
 30 34  1  0  0  0  0
 34 35  1  0  0  0  0
 16 31  1  0  0  0  0
M  END
> <NMREDATA_VERSION>
1.1

> <NMREDATA_LEVEL>
0

> <NMREDATA_SOLVENT>
CD2Cl2

> <NMREDATA_TEMPERATURE>
298

> <NMREDATA_FORMULA>
C25H61ClO4P4Rh

> <NMREDATA_SMILES>
O[Cl](=O)(=O)=O.CCP(CCCCCP([Rh]P(CCCCCP(CC)CC)(CC)CC)(CC)C)CC

> <NMREDATA_ASSIGNMENT>
Rh31, -401.00, 31

> <NMREDATA_1D_103Rh>
-401.00, L=Rh31

$$$$

  ACD/LABS03122418262D

 46 48  0  0  0  0  0  0  0  0  2 V2000
   11.5448   -9.4452    0.0000 Rh   0  3  0  0  0  0  0  0  0  0  0  0
   12.8902   -8.6743    0.0000 P    0  0  0  0  0  0  0  0  0  0  0  0
   12.1098   -7.3240    0.0000 C    0  0  0  0  0  0  0  0  0  0  0  0
   13.6610  -10.0191    0.0000 C    0  0  0  0  0  0  0  0  0  0  0  0
   14.2314   -7.8886    0.0000 C    0  0  0  0  0  0  0  0  0  0  0  0
   14.2412   -6.3343    0.0000 C    0  0  0  0  0  0  0  0  0  0  0  0
   15.5824   -5.5486    0.0000 P    0  0  0  0  0  0  0  0  0  0  0  0
   11.5499  -10.9959    0.0000 P    0  0  0  0  0  0  0  0  0  0  0  0
   13.0998  -10.9910    0.0000 C    0  0  0  0  0  0  0  0  0  0  0  0
    9.9902  -10.9952    0.0000 C    0  0  0  0  0  0  0  0  0  0  0  0
   11.5400  -12.5502    0.0000 C    0  0  0  0  0  0  0  0  0  0  0  0
   10.1989  -13.3359    0.0000 C    0  0  0  0  0  0  0  0  0  0  0  0
   10.1890  -14.8902    0.0000 P    0  0  0  0  0  0  0  0  0  0  0  0
   10.5590   -7.3284    0.0000 C    0  0  0  0  0  0  0  0  0  0  0  0
   15.2206  -10.0197    0.0000 C    0  0  0  0  0  0  0  0  0  0  0  0
   13.8802  -12.3413    0.0000 C    0  0  0  0  0  0  0  0  0  0  0  0
    9.2186   -9.6500    0.0000 C    0  0  0  0  0  0  0  0  0  0  0  0
   16.9334   -6.3172    0.0000 C    0  0  0  0  0  0  0  0  0  0  0  0
   18.2745   -5.5315    0.0000 C    0  0  0  0  0  0  0  0  0  0  0  0
   16.9433   -7.8716    0.0000 C    0  0  0  0  0  0  0  0  0  0  0  0
   19.6256   -6.3002    0.0000 C    0  0  0  0  0  0  0  0  0  0  0  0
   18.2943   -8.6402    0.0000 C    0  0  0  0  0  0  0  0  0  0  0  0
   19.6354   -7.8545    0.0000 C    0  0  0  0  0  0  0  0  0  0  0  0
   15.5725   -3.9943    0.0000 C    0  0  0  0  0  0  0  0  0  0  0  0
   14.2215   -3.2257    0.0000 C    0  0  0  0  0  0  0  0  0  0  0  0
   16.9137   -3.2085    0.0000 C    0  0  0  0  0  0  0  0  0  0  0  0
   14.2117   -1.6713    0.0000 C    0  0  0  0  0  0  0  0  0  0  0  0
   16.9038   -1.6542    0.0000 C    0  0  0  0  0  0  0  0  0  0  0  0
   15.5528   -0.8856    0.0000 C    0  0  0  0  0  0  0  0  0  0  0  0
    8.8380  -15.6588    0.0000 C    0  0  0  0  0  0  0  0  0  0  0  0
    8.8281  -17.2131    0.0000 C    0  0  0  0  0  0  0  0  0  0  0  0
    7.4968  -14.8731    0.0000 C    0  0  0  0  0  0  0  0  0  0  0  0
    7.4770  -17.9817    0.0000 C    0  0  0  0  0  0  0  0  0  0  0  0
    6.1458  -15.6417    0.0000 C    0  0  0  0  0  0  0  0  0  0  0  0
    6.1359  -17.1960    0.0000 C    0  0  0  0  0  0  0  0  0  0  0  0
   11.5301  -15.6759    0.0000 C    0  0  0  0  0  0  0  0  0  0  0  0
   12.8811  -14.9073    0.0000 C    0  0  0  0  0  0  0  0  0  0  0  0
   11.5203  -17.2303    0.0000 C    0  0  0  0  0  0  0  0  0  0  0  0
   14.2223  -15.6931    0.0000 C    0  0  0  0  0  0  0  0  0  0  0  0
   12.8614  -18.0160    0.0000 C    0  0  0  0  0  0  0  0  0  0  0  0
   14.2124  -17.2474    0.0000 C    0  0  0  0  0  0  0  0  0  0  0  0
   22.0732   -8.1963    0.0000 Cl   0  0  0  0  0  0  0  0  0  0  0  0
   21.4322   -7.0861    0.0000 O    0  0  0  0  0  0  0  0  0  0  0  0
   23.1834   -7.5554    0.0000 O    0  0  0  0  0  0  0  0  0  0  0  0
   20.9630   -8.8373    0.0000 O    0  0  0  0  0  0  0  0  0  0  0  0
   22.7142   -9.3065    0.0000 O    0  5  0  0  0  0  0  0  0  0  0  0
  1  2  1  0  0  0  0
  2  3  1  0  0  0  0
  2  4  1  0  0  0  0
  2  5  1  0  0  0  0
  5  6  1  0  0  0  0
  6  7  1  0  0  0  0
  8  9  1  0  0  0  0
  8 10  1  0  0  0  0
  8 11  1  0  0  0  0
 11 12  1  0  0  0  0
 12 13  1  0  0  0  0
  1  8  1  0  0  0  0
  3 14  1  0  0  0  0
  4 15  1  0  0  0  0
  9 16  1  0  0  0  0
 10 17  1  0  0  0  0
 18 19  1  0  0  0  0
 18 20  2  0  0  0  0
 19 21  2  0  0  0  0
 20 22  1  0  0  0  0
 21 23  1  0  0  0  0
 22 23  2  0  0  0  0
  7 18  1  0  0  0  0
 24 25  1  0  0  0  0
 24 26  2  0  0  0  0
 25 27  2  0  0  0  0
 26 28  1  0  0  0  0
 27 29  1  0  0  0  0
 28 29  2  0  0  0  0
  7 24  1  0  0  0  0
 30 31  1  0  0  0  0
 30 32  2  0  0  0  0
 31 33  2  0  0  0  0
 32 34  1  0  0  0  0
 33 35  1  0  0  0  0
 34 35  2  0  0  0  0
 13 30  1  0  0  0  0
 36 37  1  0  0  0  0
 36 38  2  0  0  0  0
 37 39  2  0  0  0  0
 38 40  1  0  0  0  0
 39 41  1  0  0  0  0
 40 41  2  0  0  0  0
 13 36  1  0  0  0  0
 42 43  2  0  0  0  0
 42 44  2  0  0  0  0
 42 45  2  0  0  0  0
 42 46  1  0  0  0  0
M  END
> <NMREDATA_VERSION>
1.1

> <NMREDATA_LEVEL>
0

> <NMREDATA_SOLVENT>
CD2Cl2

> <NMREDATA_TEMPERATURE>
298

> <NMREDATA_FORMULA>
C36H51ClO4P4Rh

> <NMREDATA_SMILES>
O[Cl](=O)(=O)=O.CCP([Rh]P(CCP(c1ccccc1)c1ccccc1)(CC)CC)(CCP(c1ccccc1)c1ccccc1)CC

> <NMREDATA_ASSIGNMENT>
Rh1, -1304.00, 1

> <NMREDATA_1D_103Rh>
-1304.00, L=Rh1

$$$$

  ACD/LABS03122418272D

 60 66  0  0  0  0  0  0  0  0  2 V2000
   22.0732   -8.1963    0.0000 Cl   0  0  0  0  0  0  0  0  0  0  0  0
   21.4322   -7.0861    0.0000 O    0  0  0  0  0  0  0  0  0  0  0  0
   23.1834   -7.5554    0.0000 O    0  0  0  0  0  0  0  0  0  0  0  0
   20.9630   -8.8373    0.0000 O    0  0  0  0  0  0  0  0  0  0  0  0
   22.7142   -9.3065    0.0000 O    0  5  0  0  0  0  0  0  0  0  0  0
   10.1890  -14.8902    0.0000 P    0  0  0  0  0  0  0  0  0  0  0  0
    8.8380  -15.6588    0.0000 C    0  0  0  0  0  0  0  0  0  0  0  0
    8.8281  -17.2131    0.0000 C    0  0  0  0  0  0  0  0  0  0  0  0
    7.4968  -14.8731    0.0000 C    0  0  0  0  0  0  0  0  0  0  0  0
    7.4770  -17.9817    0.0000 C    0  0  0  0  0  0  0  0  0  0  0  0
    6.1458  -15.6417    0.0000 C    0  0  0  0  0  0  0  0  0  0  0  0
    6.1359  -17.1960    0.0000 C    0  0  0  0  0  0  0  0  0  0  0  0
   11.5301  -15.6759    0.0000 C    0  0  0  0  0  0  0  0  0  0  0  0
   12.8811  -14.9073    0.0000 C    0  0  0  0  0  0  0  0  0  0  0  0
   11.5203  -17.2303    0.0000 C    0  0  0  0  0  0  0  0  0  0  0  0
   14.2223  -15.6931    0.0000 C    0  0  0  0  0  0  0  0  0  0  0  0
   12.8614  -18.0160    0.0000 C    0  0  0  0  0  0  0  0  0  0  0  0
   14.2124  -17.2474    0.0000 C    0  0  0  0  0  0  0  0  0  0  0  0
   11.5448   -9.4452    0.0000 Rh   0  3  0  0  0  0  0  0  0  0  0  0
   12.8902   -8.6743    0.0000 P    0  0  0  0  0  0  0  0  0  0  0  0
   11.5499  -10.9959    0.0000 P    0  0  0  0  0  0  0  0  0  0  0  0
   11.5400  -12.5502    0.0000 C    0  0  0  0  0  0  0  0  0  0  0  0
   14.2412   -6.3343    0.0000 C    0  0  0  0  0  0  0  0  0  0  0  0
   15.5824   -5.5486    0.0000 P    0  0  0  0  0  0  0  0  0  0  0  0
   16.9334   -6.3172    0.0000 C    0  0  0  0  0  0  0  0  0  0  0  0
   18.2745   -5.5315    0.0000 C    0  0  0  0  0  0  0  0  0  0  0  0
   16.9433   -7.8716    0.0000 C    0  0  0  0  0  0  0  0  0  0  0  0
   19.6256   -6.3002    0.0000 C    0  0  0  0  0  0  0  0  0  0  0  0
   18.2943   -8.6402    0.0000 C    0  0  0  0  0  0  0  0  0  0  0  0
   19.6354   -7.8545    0.0000 C    0  0  0  0  0  0  0  0  0  0  0  0
   15.5725   -3.9943    0.0000 C    0  0  0  0  0  0  0  0  0  0  0  0
   14.2215   -3.2257    0.0000 C    0  0  0  0  0  0  0  0  0  0  0  0
   16.9137   -3.2085    0.0000 C    0  0  0  0  0  0  0  0  0  0  0  0
   14.2117   -1.6713    0.0000 C    0  0  0  0  0  0  0  0  0  0  0  0
   16.9038   -1.6542    0.0000 C    0  0  0  0  0  0  0  0  0  0  0  0
   15.5528   -0.8856    0.0000 C    0  0  0  0  0  0  0  0  0  0  0  0
   13.1042  -10.9983    0.0000 C    0  0  0  0  0  0  0  0  0  0  0  0
   13.8835   -9.6534    0.0000 C    0  0  0  0  0  0  0  0  0  0  0  0
   13.8794  -12.3457    0.0000 C    0  0  0  0  0  0  0  0  0  0  0  0
   15.4379   -9.6559    0.0000 C    0  0  0  0  0  0  0  0  0  0  0  0
   15.4337  -12.3481    0.0000 C    0  0  0  0  0  0  0  0  0  0  0  0
   16.2129  -11.0032    0.0000 C    0  0  0  0  0  0  0  0  0  0  0  0
    9.9955  -10.9935    0.0000 C    0  0  0  0  0  0  0  0  0  0  0  0
    9.2163  -12.3384    0.0000 C    0  0  0  0  0  0  0  0  0  0  0  0
    9.2204   -9.6462    0.0000 C    0  0  0  0  0  0  0  0  0  0  0  0
    7.6618  -12.3359    0.0000 C    0  0  0  0  0  0  0  0  0  0  0  0
    7.6661   -9.6438    0.0000 C    0  0  0  0  0  0  0  0  0  0  0  0
    6.8868  -10.9886    0.0000 C    0  0  0  0  0  0  0  0  0  0  0  0
   13.9875   -9.7752    0.0000 C    0  0  0  0  0  0  0  0  0  0  0  0
   15.4896   -9.3754    0.0000 C    0  0  0  0  0  0  0  0  0  0  0  0
   13.5828  -11.2760    0.0000 C    0  0  0  0  0  0  0  0  0  0  0  0
   16.5868  -10.4764    0.0000 C    0  0  0  0  0  0  0  0  0  0  0  0
   14.6800  -12.3769    0.0000 C    0  0  0  0  0  0  0  0  0  0  0  0
   16.1821  -11.9771    0.0000 C    0  0  0  0  0  0  0  0  0  0  0  0
   11.7930   -7.5734    0.0000 C    0  0  0  0  0  0  0  0  0  0  0  0
   10.2909   -7.9732    0.0000 C    0  0  0  0  0  0  0  0  0  0  0  0
   12.1977   -6.0726    0.0000 C    0  0  0  0  0  0  0  0  0  0  0  0
    9.1936   -6.8722    0.0000 C    0  0  0  0  0  0  0  0  0  0  0  0
   11.1005   -4.9717    0.0000 C    0  0  0  0  0  0  0  0  0  0  0  0
    9.5984   -5.3715    0.0000 C    0  0  0  0  0  0  0  0  0  0  0  0
  1  2  2  0  0  0  0
  1  3  2  0  0  0  0
  1  4  2  0  0  0  0
  1  5  1  0  0  0  0
  7  8  1  0  0  0  0
  7  9  2  0  0  0  0
  8 10  2  0  0  0  0
  9 11  1  0  0  0  0
 10 12  1  0  0  0  0
 11 12  2  0  0  0  0
  6  7  1  0  0  0  0
 13 14  1  0  0  0  0
 13 15  2  0  0  0  0
 14 16  2  0  0  0  0
 15 17  1  0  0  0  0
 16 18  1  0  0  0  0
 17 18  2  0  0  0  0
  6 13  1  0  0  0  0
 19 20  1  0  0  0  0
 21 22  1  0  0  0  0
 19 21  1  0  0  0  0
 23 24  1  0  0  0  0
 25 26  1  0  0  0  0
 25 27  2  0  0  0  0
 26 28  2  0  0  0  0
 27 29  1  0  0  0  0
 28 30  1  0  0  0  0
 29 30  2  0  0  0  0
 24 25  1  0  0  0  0
 31 32  1  0  0  0  0
 31 33  2  0  0  0  0
 32 34  2  0  0  0  0
 33 35  1  0  0  0  0
 34 36  1  0  0  0  0
 35 36  2  0  0  0  0
 24 31  1  0  0  0  0
 20 23  1  0  0  0  0
  6 22  1  0  0  0  0
 37 38  1  0  0  0  0
 37 39  2  0  0  0  0
 38 40  2  0  0  0  0
 39 41  1  0  0  0  0
 40 42  1  0  0  0  0
 41 42  2  0  0  0  0
 21 37  1  0  0  0  0
 43 44  1  0  0  0  0
 43 45  2  0  0  0  0
 44 46  2  0  0  0  0
 45 47  1  0  0  0  0
 46 48  1  0  0  0  0
 47 48  2  0  0  0  0
 21 43  1  0  0  0  0
 49 50  1  0  0  0  0
 49 51  2  0  0  0  0
 50 52  2  0  0  0  0
 51 53  1  0  0  0  0
 52 54  1  0  0  0  0
 53 54  2  0  0  0  0
 20 49  1  0  0  0  0
 55 56  1  0  0  0  0
 55 57  2  0  0  0  0
 56 58  2  0  0  0  0
 57 59  1  0  0  0  0
 58 60  1  0  0  0  0
 59 60  2  0  0  0  0
 20 55  1  0  0  0  0
M  END
> <NMREDATA_VERSION>
1.1

> <NMREDATA_LEVEL>
0

> <NMREDATA_SOLVENT>
CD2Cl2

> <NMREDATA_TEMPERATURE>
298

> <NMREDATA_FORMULA>
C50H47ClO4P4Rh

> <NMREDATA_SMILES>
c1ccc(cc1)P(c1ccccc1)([Rh]P(c1ccccc1)(c1ccccc1)CP(c1ccccc1)c1ccccc1)CP(c1ccccc1)c1ccccc1.O[Cl](=O)(=O)=O

> <NMREDATA_ASSIGNMENT>
Rh19, -354.00, 19

> <NMREDATA_1D_103Rh>
-354.00, L=Rh19

$$$$

  ACD/LABS03122418272D

 62 68  0  0  0  0  0  0  0  0  2 V2000
   22.0732   -8.1963    0.0000 Cl   0  0  0  0  0  0  0  0  0  0  0  0
   21.4322   -7.0861    0.0000 O    0  0  0  0  0  0  0  0  0  0  0  0
   23.1834   -7.5554    0.0000 O    0  0  0  0  0  0  0  0  0  0  0  0
   20.9630   -8.8373    0.0000 O    0  0  0  0  0  0  0  0  0  0  0  0
   22.7142   -9.3065    0.0000 O    0  5  0  0  0  0  0  0  0  0  0  0
   11.5879   -8.9302    0.0000 Rh   0  3  0  0  0  0  0  0  0  0  0  0
   12.3650   -7.5841    0.0000 P    0  0  0  0  0  0  0  0  0  0  0  0
   12.3650  -10.2763    0.0000 P    0  0  0  0  0  0  0  0  0  0  0  0
   13.1422  -11.6224    0.0000 C    0  0  0  0  0  0  0  0  0  0  0  0
   14.6965  -11.6224    0.0000 C    0  0  0  0  0  0  0  0  0  0  0  0
   12.3650  -12.9685    0.0000 C    0  0  0  0  0  0  0  0  0  0  0  0
   15.4737  -12.9685    0.0000 C    0  0  0  0  0  0  0  0  0  0  0  0
   13.1422  -14.3146    0.0000 C    0  0  0  0  0  0  0  0  0  0  0  0
   14.6965  -14.3146    0.0000 C    0  0  0  0  0  0  0  0  0  0  0  0
   13.7111   -9.4991    0.0000 C    0  0  0  0  0  0  0  0  0  0  0  0
   13.7111   -7.9448    0.0000 C    0  0  0  0  0  0  0  0  0  0  0  0
   15.0572  -10.2763    0.0000 C    0  0  0  0  0  0  0  0  0  0  0  0
   15.0572   -7.1676    0.0000 C    0  0  0  0  0  0  0  0  0  0  0  0
   16.4033   -9.4991    0.0000 C    0  0  0  0  0  0  0  0  0  0  0  0
   16.4033   -7.9448    0.0000 C    0  0  0  0  0  0  0  0  0  0  0  0
   13.7111   -8.3613    0.0000 C    0  0  0  0  0  0  0  0  0  0  0  0
   15.0572   -7.5841    0.0000 C    0  0  0  0  0  0  0  0  0  0  0  0
   13.7111   -9.9156    0.0000 C    0  0  0  0  0  0  0  0  0  0  0  0
   16.4033   -8.3613    0.0000 C    0  0  0  0  0  0  0  0  0  0  0  0
   15.0572  -10.6928    0.0000 C    0  0  0  0  0  0  0  0  0  0  0  0
   16.4033   -9.9156    0.0000 C    0  0  0  0  0  0  0  0  0  0  0  0
   11.0189   -6.8069    0.0000 C    0  0  0  0  0  0  0  0  0  0  0  0
    9.6728   -7.5841    0.0000 C    0  0  0  0  0  0  0  0  0  0  0  0
   11.0189   -5.2526    0.0000 C    0  0  0  0  0  0  0  0  0  0  0  0
    8.3267   -6.8069    0.0000 C    0  0  0  0  0  0  0  0  0  0  0  0
    9.6728   -4.4754    0.0000 C    0  0  0  0  0  0  0  0  0  0  0  0
    8.3267   -5.2526    0.0000 C    0  0  0  0  0  0  0  0  0  0  0  0
   13.1422   -6.2380    0.0000 C    0  0  0  0  0  0  0  0  0  0  0  0
   14.6965   -6.2380    0.0000 C    0  0  0  0  0  0  0  0  0  0  0  0
   15.4737   -4.8919    0.0000 P    0  0  0  0  0  0  0  0  0  0  0  0
   17.0280   -4.8919    0.0000 C    0  0  0  0  0  0  0  0  0  0  0  0
   17.8052   -3.5458    0.0000 C    0  0  0  0  0  0  0  0  0  0  0  0
   17.8052   -6.2380    0.0000 C    0  0  0  0  0  0  0  0  0  0  0  0
   19.3596   -3.5458    0.0000 C    0  0  0  0  0  0  0  0  0  0  0  0
   19.3596   -6.2380    0.0000 C    0  0  0  0  0  0  0  0  0  0  0  0
   20.1367   -4.8919    0.0000 C    0  0  0  0  0  0  0  0  0  0  0  0
   14.6965   -3.5458    0.0000 C    0  0  0  0  0  0  0  0  0  0  0  0
   13.1422   -3.5458    0.0000 C    0  0  0  0  0  0  0  0  0  0  0  0
   15.4737   -2.1997    0.0000 C    0  0  0  0  0  0  0  0  0  0  0  0
   12.3650   -2.1997    0.0000 C    0  0  0  0  0  0  0  0  0  0  0  0
   14.6965   -0.8536    0.0000 C    0  0  0  0  0  0  0  0  0  0  0  0
   13.1422   -0.8536    0.0000 C    0  0  0  0  0  0  0  0  0  0  0  0
   11.0189  -11.0535    0.0000 C    0  0  0  0  0  0  0  0  0  0  0  0
   11.0189  -12.6078    0.0000 C    0  0  0  0  0  0  0  0  0  0  0  0
    9.6728  -13.3850    0.0000 P    0  0  0  0  0  0  0  0  0  0  0  0
    8.3267  -12.6078    0.0000 C    0  0  0  0  0  0  0  0  0  0  0  0
    6.9807  -13.3850    0.0000 C    0  0  0  0  0  0  0  0  0  0  0  0
    8.3267  -11.0535    0.0000 C    0  0  0  0  0  0  0  0  0  0  0  0
    5.6346  -12.6078    0.0000 C    0  0  0  0  0  0  0  0  0  0  0  0
    6.9807  -10.2763    0.0000 C    0  0  0  0  0  0  0  0  0  0  0  0
    5.6346  -11.0535    0.0000 C    0  0  0  0  0  0  0  0  0  0  0  0
    9.6728  -14.9393    0.0000 C    0  0  0  0  0  0  0  0  0  0  0  0
   11.0189  -15.7165    0.0000 C    0  0  0  0  0  0  0  0  0  0  0  0
    8.3267  -15.7165    0.0000 C    0  0  0  0  0  0  0  0  0  0  0  0
   11.0189  -17.2708    0.0000 C    0  0  0  0  0  0  0  0  0  0  0  0
    8.3267  -17.2708    0.0000 C    0  0  0  0  0  0  0  0  0  0  0  0
    9.6728  -18.0480    0.0000 C    0  0  0  0  0  0  0  0  0  0  0  0
  1  2  2  0  0  0  0
  1  3  2  0  0  0  0
  1  4  2  0  0  0  0
  1  5  1  0  0  0  0
  6  7  1  0  0  0  0
  6  8  1  0  0  0  0
  9 10  1  0  0  0  0
  9 11  2  0  0  0  0
 10 12  2  0  0  0  0
 11 13  1  0  0  0  0
 12 14  1  0  0  0  0
 13 14  2  0  0  0  0
  8  9  1  0  0  0  0
 15 16  1  0  0  0  0
 15 17  2  0  0  0  0
 16 18  2  0  0  0  0
 17 19  1  0  0  0  0
 18 20  1  0  0  0  0
 19 20  2  0  0  0  0
  8 15  1  0  0  0  0
 21 22  1  0  0  0  0
 21 23  2  0  0  0  0
 22 24  2  0  0  0  0
 23 25  1  0  0  0  0
 24 26  1  0  0  0  0
 25 26  2  0  0  0  0
  7 21  1  0  0  0  0
 27 28  1  0  0  0  0
 27 29  2  0  0  0  0
 28 30  2  0  0  0  0
 29 31  1  0  0  0  0
 30 32  1  0  0  0  0
 31 32  2  0  0  0  0
  7 27  1  0  0  0  0
  7 33  1  0  0  0  0
 33 34  1  0  0  0  0
 36 37  1  0  0  0  0
 36 38  2  0  0  0  0
 37 39  2  0  0  0  0
 38 40  1  0  0  0  0
 39 41  1  0  0  0  0
 40 41  2  0  0  0  0
 35 36  1  0  0  0  0
 42 43  1  0  0  0  0
 42 44  2  0  0  0  0
 43 45  2  0  0  0  0
 44 46  1  0  0  0  0
 45 47  1  0  0  0  0
 46 47  2  0  0  0  0
 35 42  1  0  0  0  0
 34 35  1  0  0  0  0
  8 48  1  0  0  0  0
 48 49  1  0  0  0  0
 51 52  1  0  0  0  0
 51 53  2  0  0  0  0
 52 54  2  0  0  0  0
 53 55  1  0  0  0  0
 54 56  1  0  0  0  0
 55 56  2  0  0  0  0
 50 51  1  0  0  0  0
 57 58  1  0  0  0  0
 57 59  2  0  0  0  0
 58 60  2  0  0  0  0
 59 61  1  0  0  0  0
 60 62  1  0  0  0  0
 61 62  2  0  0  0  0
 50 57  1  0  0  0  0
 49 50  1  0  0  0  0
M  END
> <NMREDATA_VERSION>
1.1

> <NMREDATA_LEVEL>
0

> <NMREDATA_SOLVENT>
CD2Cl2

> <NMREDATA_TEMPERATURE>
298

> <NMREDATA_FORMULA>
C52H51ClO4P4Rh

> <NMREDATA_SMILES>
c1ccc(cc1)P(c1ccccc1)([Rh]P(c1ccccc1)(c1ccccc1)CCP(c1ccccc1)c1ccccc1)CCP(c1ccccc1)c1ccccc1.O[Cl](=O)(=O)=O

> <NMREDATA_ASSIGNMENT>
Rh6, -1167.00, 6

> <NMREDATA_1D_103Rh>
-1167.00, L=Rh6

$$$$

  ACD/LABS03122418282D

 62 68  0  0  0  0  0  0  0  0  2 V2000
   11.5879   -8.9302    0.0000 Rh   0  3  0  0  0  0  0  0  0  0  0  0
   12.3650   -7.5841    0.0000 P    0  0  0  0  0  0  0  0  0  0  0  0
   12.3650  -10.2763    0.0000 P    0  0  0  0  0  0  0  0  0  0  0  0
   13.1422  -11.6224    0.0000 C    0  0  0  0  0  0  0  0  0  0  0  0
   14.6965  -11.6224    0.0000 C    0  0  0  0  0  0  0  0  0  0  0  0
   12.3650  -12.9685    0.0000 C    0  0  0  0  0  0  0  0  0  0  0  0
   15.4737  -12.9685    0.0000 C    0  0  0  0  0  0  0  0  0  0  0  0
   13.1422  -14.3146    0.0000 C    0  0  0  0  0  0  0  0  0  0  0  0
   14.6965  -14.3146    0.0000 C    0  0  0  0  0  0  0  0  0  0  0  0
   13.7111   -9.4991    0.0000 C    0  0  0  0  0  0  0  0  0  0  0  0
   13.7111   -7.9448    0.0000 C    0  0  0  0  0  0  0  0  0  0  0  0
   15.0572  -10.2763    0.0000 C    0  0  0  0  0  0  0  0  0  0  0  0
   15.0572   -7.1676    0.0000 C    0  0  0  0  0  0  0  0  0  0  0  0
   16.4033   -9.4991    0.0000 C    0  0  0  0  0  0  0  0  0  0  0  0
   16.4033   -7.9448    0.0000 C    0  0  0  0  0  0  0  0  0  0  0  0
   13.7111   -8.3613    0.0000 C    0  0  0  0  0  0  0  0  0  0  0  0
   15.0572   -7.5841    0.0000 C    0  0  0  0  0  0  0  0  0  0  0  0
   13.7111   -9.9156    0.0000 C    0  0  0  0  0  0  0  0  0  0  0  0
   16.4033   -8.3613    0.0000 C    0  0  0  0  0  0  0  0  0  0  0  0
   15.0572  -10.6928    0.0000 C    0  0  0  0  0  0  0  0  0  0  0  0
   16.4033   -9.9156    0.0000 C    0  0  0  0  0  0  0  0  0  0  0  0
   11.0189   -6.8069    0.0000 C    0  0  0  0  0  0  0  0  0  0  0  0
    9.6728   -7.5841    0.0000 C    0  0  0  0  0  0  0  0  0  0  0  0
   11.0189   -5.2526    0.0000 C    0  0  0  0  0  0  0  0  0  0  0  0
    8.3267   -6.8069    0.0000 C    0  0  0  0  0  0  0  0  0  0  0  0
    9.6728   -4.4754    0.0000 C    0  0  0  0  0  0  0  0  0  0  0  0
    8.3267   -5.2526    0.0000 C    0  0  0  0  0  0  0  0  0  0  0  0
   13.1422   -6.2380    0.0000 C    0  0  0  0  0  0  0  0  0  0  0  0
   14.6965   -6.2380    0.0000 C    0  0  0  0  0  0  0  0  0  0  0  0
   15.4737   -4.8919    0.0000 P    0  0  0  0  0  0  0  0  0  0  0  0
   17.0280   -4.8919    0.0000 C    0  0  0  0  0  0  0  0  0  0  0  0
   17.8052   -3.5458    0.0000 C    0  0  0  0  0  0  0  0  0  0  0  0
   17.8052   -6.2380    0.0000 C    0  0  0  0  0  0  0  0  0  0  0  0
   19.3596   -3.5458    0.0000 C    0  0  0  0  0  0  0  0  0  0  0  0
   19.3596   -6.2380    0.0000 C    0  0  0  0  0  0  0  0  0  0  0  0
   20.1367   -4.8919    0.0000 C    0  0  0  0  0  0  0  0  0  0  0  0
   14.6965   -3.5458    0.0000 C    0  0  0  0  0  0  0  0  0  0  0  0
   13.1422   -3.5458    0.0000 C    0  0  0  0  0  0  0  0  0  0  0  0
   15.4737   -2.1997    0.0000 C    0  0  0  0  0  0  0  0  0  0  0  0
   12.3650   -2.1997    0.0000 C    0  0  0  0  0  0  0  0  0  0  0  0
   14.6965   -0.8536    0.0000 C    0  0  0  0  0  0  0  0  0  0  0  0
   13.1422   -0.8536    0.0000 C    0  0  0  0  0  0  0  0  0  0  0  0
   11.0189  -11.0535    0.0000 C    0  0  0  0  0  0  0  0  0  0  0  0
   11.0189  -12.6078    0.0000 C    0  0  0  0  0  0  0  0  0  0  0  0
    9.6728  -13.3850    0.0000 P    0  0  0  0  0  0  0  0  0  0  0  0
    8.3267  -12.6078    0.0000 C    0  0  0  0  0  0  0  0  0  0  0  0
    6.9807  -13.3850    0.0000 C    0  0  0  0  0  0  0  0  0  0  0  0
    8.3267  -11.0535    0.0000 C    0  0  0  0  0  0  0  0  0  0  0  0
    5.6346  -12.6078    0.0000 C    0  0  0  0  0  0  0  0  0  0  0  0
    6.9807  -10.2763    0.0000 C    0  0  0  0  0  0  0  0  0  0  0  0
    5.6346  -11.0535    0.0000 C    0  0  0  0  0  0  0  0  0  0  0  0
    9.6728  -14.9393    0.0000 C    0  0  0  0  0  0  0  0  0  0  0  0
   11.0189  -15.7165    0.0000 C    0  0  0  0  0  0  0  0  0  0  0  0
    8.3267  -15.7165    0.0000 C    0  0  0  0  0  0  0  0  0  0  0  0
   11.0189  -17.2708    0.0000 C    0  0  0  0  0  0  0  0  0  0  0  0
    8.3267  -17.2708    0.0000 C    0  0  0  0  0  0  0  0  0  0  0  0
    9.6728  -18.0480    0.0000 C    0  0  0  0  0  0  0  0  0  0  0  0
   23.9160  -10.2234    0.0000 B    0  5  0  0  0  0  0  0  0  0  0  0
   25.2299  -10.2234    0.0000 F    0  0  0  0  0  0  0  0  0  0  0  0
   23.9160   -8.9094    0.0000 F    0  0  0  0  0  0  0  0  0  0  0  0
   23.9160  -11.5374    0.0000 F    0  0  0  0  0  0  0  0  0  0  0  0
   22.6020  -10.2234    0.0000 F    0  0  0  0  0  0  0  0  0  0  0  0
  1  2  1  0  0  0  0
  1  3  1  0  0  0  0
  4  5  1  0  0  0  0
  4  6  2  0  0  0  0
  5  7  2  0  0  0  0
  6  8  1  0  0  0  0
  7  9  1  0  0  0  0
  8  9  2  0  0  0  0
  3  4  1  0  0  0  0
 10 11  1  0  0  0  0
 10 12  2  0  0  0  0
 11 13  2  0  0  0  0
 12 14  1  0  0  0  0
 13 15  1  0  0  0  0
 14 15  2  0  0  0  0
  3 10  1  0  0  0  0
 16 17  1  0  0  0  0
 16 18  2  0  0  0  0
 17 19  2  0  0  0  0
 18 20  1  0  0  0  0
 19 21  1  0  0  0  0
 20 21  2  0  0  0  0
  2 16  1  0  0  0  0
 22 23  1  0  0  0  0
 22 24  2  0  0  0  0
 23 25  2  0  0  0  0
 24 26  1  0  0  0  0
 25 27  1  0  0  0  0
 26 27  2  0  0  0  0
  2 22  1  0  0  0  0
  2 28  1  0  0  0  0
 28 29  1  0  0  0  0
 31 32  1  0  0  0  0
 31 33  2  0  0  0  0
 32 34  2  0  0  0  0
 33 35  1  0  0  0  0
 34 36  1  0  0  0  0
 35 36  2  0  0  0  0
 30 31  1  0  0  0  0
 37 38  1  0  0  0  0
 37 39  2  0  0  0  0
 38 40  2  0  0  0  0
 39 41  1  0  0  0  0
 40 42  1  0  0  0  0
 41 42  2  0  0  0  0
 30 37  1  0  0  0  0
 29 30  1  0  0  0  0
  3 43  1  0  0  0  0
 43 44  1  0  0  0  0
 46 47  1  0  0  0  0
 46 48  2  0  0  0  0
 47 49  2  0  0  0  0
 48 50  1  0  0  0  0
 49 51  1  0  0  0  0
 50 51  2  0  0  0  0
 45 46  1  0  0  0  0
 52 53  1  0  0  0  0
 52 54  2  0  0  0  0
 53 55  2  0  0  0  0
 54 56  1  0  0  0  0
 55 57  1  0  0  0  0
 56 57  2  0  0  0  0
 45 52  1  0  0  0  0
 44 45  1  0  0  0  0
 58 59  1  0  0  0  0
 58 60  1  0  0  0  0
 58 61  1  0  0  0  0
 58 62  1  0  0  0  0
M  END
> <NMREDATA_VERSION>
1.1

> <NMREDATA_LEVEL>
0

> <NMREDATA_SOLVENT>
CD2Cl2

> <NMREDATA_TEMPERATURE>
298

> <NMREDATA_FORMULA>
C52H50BF4P4Rh

> <NMREDATA_SMILES>
c1ccc(cc1)P(c1ccccc1)([Rh]P(c1ccccc1)(c1ccccc1)CCP(c1ccccc1)c1ccccc1)CCP(c1ccccc1)c1ccccc1.F[B](F)(F)F

> <NMREDATA_ASSIGNMENT>
Rh1, -1155.00, 1

> <NMREDATA_1D_103Rh>
-1155.00, L=Rh1

$$$$

  ACD/LABS03132411062D

 65 71  0  0  0  0  0  0  0  0  2 V2000
   11.5879   -8.9302    0.0000 Rh   0  3  0  0  0  0  0  0  0  0  0  0
   12.3650   -7.5841    0.0000 P    0  0  0  0  0  0  0  0  0  0  0  0
   12.3650  -10.2763    0.0000 P    0  0  0  0  0  0  0  0  0  0  0  0
   13.1422  -11.6224    0.0000 C    0  0  0  0  0  0  0  0  0  0  0  0
   14.6965  -11.6224    0.0000 C    0  0  0  0  0  0  0  0  0  0  0  0
   12.3650  -12.9685    0.0000 C    0  0  0  0  0  0  0  0  0  0  0  0
   15.4737  -12.9685    0.0000 C    0  0  0  0  0  0  0  0  0  0  0  0
   13.1422  -14.3146    0.0000 C    0  0  0  0  0  0  0  0  0  0  0  0
   14.6965  -14.3146    0.0000 C    0  0  0  0  0  0  0  0  0  0  0  0
   13.7111   -9.4991    0.0000 C    0  0  0  0  0  0  0  0  0  0  0  0
   13.7111   -7.9448    0.0000 C    0  0  0  0  0  0  0  0  0  0  0  0
   15.0572  -10.2763    0.0000 C    0  0  0  0  0  0  0  0  0  0  0  0
   15.0572   -7.1676    0.0000 C    0  0  0  0  0  0  0  0  0  0  0  0
   16.4033   -9.4991    0.0000 C    0  0  0  0  0  0  0  0  0  0  0  0
   16.4033   -7.9448    0.0000 C    0  0  0  0  0  0  0  0  0  0  0  0
   13.7111   -8.3613    0.0000 C    0  0  0  0  0  0  0  0  0  0  0  0
   15.0572   -7.5841    0.0000 C    0  0  0  0  0  0  0  0  0  0  0  0
   13.7111   -9.9156    0.0000 C    0  0  0  0  0  0  0  0  0  0  0  0
   16.4033   -8.3613    0.0000 C    0  0  0  0  0  0  0  0  0  0  0  0
   15.0572  -10.6928    0.0000 C    0  0  0  0  0  0  0  0  0  0  0  0
   16.4033   -9.9156    0.0000 C    0  0  0  0  0  0  0  0  0  0  0  0
   11.0189   -6.8069    0.0000 C    0  0  0  0  0  0  0  0  0  0  0  0
    9.6728   -7.5841    0.0000 C    0  0  0  0  0  0  0  0  0  0  0  0
   11.0189   -5.2526    0.0000 C    0  0  0  0  0  0  0  0  0  0  0  0
    8.3267   -6.8069    0.0000 C    0  0  0  0  0  0  0  0  0  0  0  0
    9.6728   -4.4754    0.0000 C    0  0  0  0  0  0  0  0  0  0  0  0
    8.3267   -5.2526    0.0000 C    0  0  0  0  0  0  0  0  0  0  0  0
   13.1422   -6.2380    0.0000 C    0  0  0  0  0  0  0  0  0  0  0  0
   14.6965   -6.2380    0.0000 C    0  0  0  0  0  0  0  0  0  0  0  0
   15.4737   -4.8919    0.0000 P    0  0  0  0  0  0  0  0  0  0  0  0
   17.0280   -4.8919    0.0000 C    0  0  0  0  0  0  0  0  0  0  0  0
   17.8052   -3.5458    0.0000 C    0  0  0  0  0  0  0  0  0  0  0  0
   17.8052   -6.2380    0.0000 C    0  0  0  0  0  0  0  0  0  0  0  0
   19.3596   -3.5458    0.0000 C    0  0  0  0  0  0  0  0  0  0  0  0
   19.3596   -6.2380    0.0000 C    0  0  0  0  0  0  0  0  0  0  0  0
   20.1367   -4.8919    0.0000 C    0  0  0  0  0  0  0  0  0  0  0  0
   14.6965   -3.5458    0.0000 C    0  0  0  0  0  0  0  0  0  0  0  0
   13.1422   -3.5458    0.0000 C    0  0  0  0  0  0  0  0  0  0  0  0
   15.4737   -2.1997    0.0000 C    0  0  0  0  0  0  0  0  0  0  0  0
   12.3650   -2.1997    0.0000 C    0  0  0  0  0  0  0  0  0  0  0  0
   14.6965   -0.8536    0.0000 C    0  0  0  0  0  0  0  0  0  0  0  0
   13.1422   -0.8536    0.0000 C    0  0  0  0  0  0  0  0  0  0  0  0
   11.0189  -11.0535    0.0000 C    0  0  0  0  0  0  0  0  0  0  0  0
   11.0189  -12.6078    0.0000 C    0  0  0  0  0  0  0  0  0  0  0  0
    9.6728  -13.3850    0.0000 P    0  0  0  0  0  0  0  0  0  0  0  0
    8.3267  -12.6078    0.0000 C    0  0  0  0  0  0  0  0  0  0  0  0
    6.9807  -13.3850    0.0000 C    0  0  0  0  0  0  0  0  0  0  0  0
    8.3267  -11.0535    0.0000 C    0  0  0  0  0  0  0  0  0  0  0  0
    5.6346  -12.6078    0.0000 C    0  0  0  0  0  0  0  0  0  0  0  0
    6.9807  -10.2763    0.0000 C    0  0  0  0  0  0  0  0  0  0  0  0
    5.6346  -11.0535    0.0000 C    0  0  0  0  0  0  0  0  0  0  0  0
    9.6728  -14.9393    0.0000 C    0  0  0  0  0  0  0  0  0  0  0  0
   11.0189  -15.7165    0.0000 C    0  0  0  0  0  0  0  0  0  0  0  0
    8.3267  -15.7165    0.0000 C    0  0  0  0  0  0  0  0  0  0  0  0
   11.0189  -17.2708    0.0000 C    0  0  0  0  0  0  0  0  0  0  0  0
    8.3267  -17.2708    0.0000 C    0  0  0  0  0  0  0  0  0  0  0  0
    9.6728  -18.0480    0.0000 C    0  0  0  0  0  0  0  0  0  0  0  0
   22.8183  -10.3681    0.0000 S    0  0  0  0  0  0  0  0  0  0  0  0
   23.5394   -9.1191    0.0000 O    0  0  0  0  0  0  0  0  0  0  0  0
   21.5694   -9.6470    0.0000 O    0  0  0  0  0  0  0  0  0  0  0  0
   22.0972  -11.6170    0.0000 C    0  0  0  0  0  0  0  0  0  0  0  0
   24.0673  -11.0891    0.0000 O    0  5  0  0  0  0  0  0  0  0  0  0
   20.8483  -10.8959    0.0000 F    0  0  0  0  0  0  0  0  0  0  0  0
   23.3462  -12.3381    0.0000 F    0  0  0  0  0  0  0  0  0  0  0  0
   21.3762  -12.8660    0.0000 F    0  0  0  0  0  0  0  0  0  0  0  0
  1  2  1  0  0  0  0
  1  3  1  0  0  0  0
  4  5  1  0  0  0  0
  4  6  2  0  0  0  0
  5  7  2  0  0  0  0
  6  8  1  0  0  0  0
  7  9  1  0  0  0  0
  8  9  2  0  0  0  0
  3  4  1  0  0  0  0
 10 11  1  0  0  0  0
 10 12  2  0  0  0  0
 11 13  2  0  0  0  0
 12 14  1  0  0  0  0
 13 15  1  0  0  0  0
 14 15  2  0  0  0  0
  3 10  1  0  0  0  0
 16 17  1  0  0  0  0
 16 18  2  0  0  0  0
 17 19  2  0  0  0  0
 18 20  1  0  0  0  0
 19 21  1  0  0  0  0
 20 21  2  0  0  0  0
  2 16  1  0  0  0  0
 22 23  1  0  0  0  0
 22 24  2  0  0  0  0
 23 25  2  0  0  0  0
 24 26  1  0  0  0  0
 25 27  1  0  0  0  0
 26 27  2  0  0  0  0
  2 22  1  0  0  0  0
  2 28  1  0  0  0  0
 28 29  1  0  0  0  0
 31 32  1  0  0  0  0
 31 33  2  0  0  0  0
 32 34  2  0  0  0  0
 33 35  1  0  0  0  0
 34 36  1  0  0  0  0
 35 36  2  0  0  0  0
 30 31  1  0  0  0  0
 37 38  1  0  0  0  0
 37 39  2  0  0  0  0
 38 40  2  0  0  0  0
 39 41  1  0  0  0  0
 40 42  1  0  0  0  0
 41 42  2  0  0  0  0
 30 37  1  0  0  0  0
 29 30  1  0  0  0  0
  3 43  1  0  0  0  0
 43 44  1  0  0  0  0
 46 47  1  0  0  0  0
 46 48  2  0  0  0  0
 47 49  2  0  0  0  0
 48 50  1  0  0  0  0
 49 51  1  0  0  0  0
 50 51  2  0  0  0  0
 45 46  1  0  0  0  0
 52 53  1  0  0  0  0
 52 54  2  0  0  0  0
 53 55  2  0  0  0  0
 54 56  1  0  0  0  0
 55 57  1  0  0  0  0
 56 57  2  0  0  0  0
 45 52  1  0  0  0  0
 44 45  1  0  0  0  0
 58 59  2  0  0  0  0
 58 60  2  0  0  0  0
 58 61  1  0  0  0  0
 58 62  1  0  0  0  0
 61 63  1  0  0  0  0
 61 64  1  0  0  0  0
 61 65  1  0  0  0  0
M  END
> <NMREDATA_VERSION>
1.1

> <NMREDATA_LEVEL>
0

> <NMREDATA_SOLVENT>
CD2Cl2

> <NMREDATA_TEMPERATURE>
298

> <NMREDATA_FORMULA>
C53H51F3O3P4RhS

> <NMREDATA_SMILES>
c1ccc(cc1)P(c1ccccc1)([Rh]P(c1ccccc1)(c1ccccc1)CCP(c1ccccc1)c1ccccc1)CCP(c1ccccc1)c1ccccc1.FC(S(=O)(=O)O)(F)F

> <NMREDATA_ASSIGNMENT>
Rh1, -1172.00, 1

> <NMREDATA_1D_103Rh>
-1172.00, L=Rh1

$$$$

  ACD/LABS03132411072D

 62 68  0  0  0  0  0  0  0  0  2 V2000
   11.5879   -8.9302    0.0000 Rh   0  3  0  0  0  0  0  0  0  0  0  0
   12.3650   -7.5841    0.0000 P    0  0  0  0  0  0  0  0  0  0  0  0
   12.3650  -10.2763    0.0000 P    0  0  0  0  0  0  0  0  0  0  0  0
   13.1422  -11.6224    0.0000 C    0  0  0  0  0  0  0  0  0  0  0  0
   14.6965  -11.6224    0.0000 C    0  0  0  0  0  0  0  0  0  0  0  0
   12.3650  -12.9685    0.0000 C    0  0  0  0  0  0  0  0  0  0  0  0
   15.4737  -12.9685    0.0000 C    0  0  0  0  0  0  0  0  0  0  0  0
   13.1422  -14.3146    0.0000 C    0  0  0  0  0  0  0  0  0  0  0  0
   14.6965  -14.3146    0.0000 C    0  0  0  0  0  0  0  0  0  0  0  0
   13.7111   -9.4991    0.0000 C    0  0  0  0  0  0  0  0  0  0  0  0
   13.7111   -7.9448    0.0000 C    0  0  0  0  0  0  0  0  0  0  0  0
   15.0572  -10.2763    0.0000 C    0  0  0  0  0  0  0  0  0  0  0  0
   15.0572   -7.1676    0.0000 C    0  0  0  0  0  0  0  0  0  0  0  0
   16.4033   -9.4991    0.0000 C    0  0  0  0  0  0  0  0  0  0  0  0
   16.4033   -7.9448    0.0000 C    0  0  0  0  0  0  0  0  0  0  0  0
   13.7111   -8.3613    0.0000 C    0  0  0  0  0  0  0  0  0  0  0  0
   15.0572   -7.5841    0.0000 C    0  0  0  0  0  0  0  0  0  0  0  0
   13.7111   -9.9156    0.0000 C    0  0  0  0  0  0  0  0  0  0  0  0
   16.4033   -8.3613    0.0000 C    0  0  0  0  0  0  0  0  0  0  0  0
   15.0572  -10.6928    0.0000 C    0  0  0  0  0  0  0  0  0  0  0  0
   16.4033   -9.9156    0.0000 C    0  0  0  0  0  0  0  0  0  0  0  0
   11.0189   -6.8069    0.0000 C    0  0  0  0  0  0  0  0  0  0  0  0
    9.6728   -7.5841    0.0000 C    0  0  0  0  0  0  0  0  0  0  0  0
   11.0189   -5.2526    0.0000 C    0  0  0  0  0  0  0  0  0  0  0  0
    8.3267   -6.8069    0.0000 C    0  0  0  0  0  0  0  0  0  0  0  0
    9.6728   -4.4754    0.0000 C    0  0  0  0  0  0  0  0  0  0  0  0
    8.3267   -5.2526    0.0000 C    0  0  0  0  0  0  0  0  0  0  0  0
   13.1422   -6.2380    0.0000 C    0  0  0  0  0  0  0  0  0  0  0  0
   14.6965   -6.2380    0.0000 C    0  0  0  0  0  0  0  0  0  0  0  0
   15.4737   -4.8919    0.0000 P    0  0  0  0  0  0  0  0  0  0  0  0
   17.0280   -4.8919    0.0000 C    0  0  0  0  0  0  0  0  0  0  0  0
   17.8052   -3.5458    0.0000 C    0  0  0  0  0  0  0  0  0  0  0  0
   17.8052   -6.2380    0.0000 C    0  0  0  0  0  0  0  0  0  0  0  0
   19.3596   -3.5458    0.0000 C    0  0  0  0  0  0  0  0  0  0  0  0
   19.3596   -6.2380    0.0000 C    0  0  0  0  0  0  0  0  0  0  0  0
   20.1367   -4.8919    0.0000 C    0  0  0  0  0  0  0  0  0  0  0  0
   14.6965   -3.5458    0.0000 C    0  0  0  0  0  0  0  0  0  0  0  0
   13.1422   -3.5458    0.0000 C    0  0  0  0  0  0  0  0  0  0  0  0
   15.4737   -2.1997    0.0000 C    0  0  0  0  0  0  0  0  0  0  0  0
   12.3650   -2.1997    0.0000 C    0  0  0  0  0  0  0  0  0  0  0  0
   14.6965   -0.8536    0.0000 C    0  0  0  0  0  0  0  0  0  0  0  0
   13.1422   -0.8536    0.0000 C    0  0  0  0  0  0  0  0  0  0  0  0
   11.0189  -11.0535    0.0000 C    0  0  0  0  0  0  0  0  0  0  0  0
   11.0189  -12.6078    0.0000 C    0  0  0  0  0  0  0  0  0  0  0  0
    9.6728  -13.3850    0.0000 P    0  0  0  0  0  0  0  0  0  0  0  0
    8.3267  -12.6078    0.0000 C    0  0  0  0  0  0  0  0  0  0  0  0
    6.9807  -13.3850    0.0000 C    0  0  0  0  0  0  0  0  0  0  0  0
    8.3267  -11.0535    0.0000 C    0  0  0  0  0  0  0  0  0  0  0  0
    5.6346  -12.6078    0.0000 C    0  0  0  0  0  0  0  0  0  0  0  0
    6.9807  -10.2763    0.0000 C    0  0  0  0  0  0  0  0  0  0  0  0
    5.6346  -11.0535    0.0000 C    0  0  0  0  0  0  0  0  0  0  0  0
    9.6728  -14.9393    0.0000 C    0  0  0  0  0  0  0  0  0  0  0  0
   11.0189  -15.7165    0.0000 C    0  0  0  0  0  0  0  0  0  0  0  0
    8.3267  -15.7165    0.0000 C    0  0  0  0  0  0  0  0  0  0  0  0
   11.0189  -17.2708    0.0000 C    0  0  0  0  0  0  0  0  0  0  0  0
    8.3267  -17.2708    0.0000 C    0  0  0  0  0  0  0  0  0  0  0  0
    9.6728  -18.0480    0.0000 C    0  0  0  0  0  0  0  0  0  0  0  0
   24.8374  -11.5213    0.0000 Cl   0  0  0  0  0  0  0  0  0  0  0  0
   24.0922  -10.2307    0.0000 O    0  0  0  0  0  0  0  0  0  0  0  0
   26.1279  -10.7762    0.0000 O    0  0  0  0  0  0  0  0  0  0  0  0
   23.5468  -12.2664    0.0000 O    0  0  0  0  0  0  0  0  0  0  0  0
   25.5825  -12.8119    0.0000 O    0  5  0  0  0  0  0  0  0  0  0  0
  1  2  1  0  0  0  0
  1  3  1  0  0  0  0
  4  5  1  0  0  0  0
  4  6  2  0  0  0  0
  5  7  2  0  0  0  0
  6  8  1  0  0  0  0
  7  9  1  0  0  0  0
  8  9  2  0  0  0  0
  3  4  1  0  0  0  0
 10 11  1  0  0  0  0
 10 12  2  0  0  0  0
 11 13  2  0  0  0  0
 12 14  1  0  0  0  0
 13 15  1  0  0  0  0
 14 15  2  0  0  0  0
  3 10  1  0  0  0  0
 16 17  1  0  0  0  0
 16 18  2  0  0  0  0
 17 19  2  0  0  0  0
 18 20  1  0  0  0  0
 19 21  1  0  0  0  0
 20 21  2  0  0  0  0
  2 16  1  0  0  0  0
 22 23  1  0  0  0  0
 22 24  2  0  0  0  0
 23 25  2  0  0  0  0
 24 26  1  0  0  0  0
 25 27  1  0  0  0  0
 26 27  2  0  0  0  0
  2 22  1  0  0  0  0
  2 28  1  0  0  0  0
 28 29  2  0  0  0  0
 31 32  1  0  0  0  0
 31 33  2  0  0  0  0
 32 34  2  0  0  0  0
 33 35  1  0  0  0  0
 34 36  1  0  0  0  0
 35 36  2  0  0  0  0
 30 31  1  0  0  0  0
 37 38  1  0  0  0  0
 37 39  2  0  0  0  0
 38 40  2  0  0  0  0
 39 41  1  0  0  0  0
 40 42  1  0  0  0  0
 41 42  2  0  0  0  0
 30 37  1  0  0  0  0
 29 30  1  0  0  0  0
  3 43  1  0  0  0  0
 43 44  2  0  0  0  0
 46 47  1  0  0  0  0
 46 48  2  0  0  0  0
 47 49  2  0  0  0  0
 48 50  1  0  0  0  0
 49 51  1  0  0  0  0
 50 51  2  0  0  0  0
 45 46  1  0  0  0  0
 52 53  1  0  0  0  0
 52 54  2  0  0  0  0
 53 55  2  0  0  0  0
 54 56  1  0  0  0  0
 55 57  1  0  0  0  0
 56 57  2  0  0  0  0
 45 52  1  0  0  0  0
 44 45  1  0  0  0  0
 58 59  2  0  0  0  0
 58 60  2  0  0  0  0
 58 61  2  0  0  0  0
 58 62  1  0  0  0  0
M  END
> <NMREDATA_VERSION>
1.1

> <NMREDATA_LEVEL>
0

> <NMREDATA_SOLVENT>
CD2Cl2

> <NMREDATA_TEMPERATURE>
298

> <NMREDATA_FORMULA>
C52H47ClO4P4Rh

> <NMREDATA_SMILES>
c1ccc(cc1)P(c1ccccc1)([Rh]P(c1ccccc1)(c1ccccc1)/C=C/P(c1ccccc1)c1ccccc1)/C=C/P(c1ccccc1)c1ccccc1.O[Cl](=O)(=O)=O

> <NMREDATA_ASSIGNMENT>
Rh1, -641.00, 1

> <NMREDATA_1D_103Rh>
-641.00, L=Rh1

$$$$

  ACD/LABS03132411112D

 90 98  0  0  0  0  0  0  0  0  2 V2000
   20.1303  -14.3227    0.0000 C    0  0  0  0  0  0  0  0  0  0  0  0
   20.7953  -15.4745    0.0000 C    0  0  0  0  0  0  0  0  0  0  0  0
   18.8003  -14.3227    0.0000 C    0  0  0  0  0  0  0  0  0  0  0  0
   20.1303  -16.6263    0.0000 C    0  0  0  0  0  0  0  0  0  0  0  0
   18.1353  -15.4745    0.0000 C    0  0  0  0  0  0  0  0  0  0  0  0
   18.8003  -16.6263    0.0000 C    0  0  0  0  0  0  0  0  0  0  0  0
   18.1353  -17.7781    0.0000 C    0  0  0  0  0  0  0  0  0  0  0  0
   19.2871  -18.4431    0.0000 F    0  0  0  0  0  0  0  0  0  0  0  0
   16.9835  -17.1131    0.0000 F    0  0  0  0  0  0  0  0  0  0  0  0
   17.4703  -18.9299    0.0000 F    0  0  0  0  0  0  0  0  0  0  0  0
   20.1303  -12.0191    0.0000 C    0  0  0  0  0  0  0  0  0  0  0  0
   18.8003  -12.0191    0.0000 C    0  0  0  0  0  0  0  0  0  0  0  0
   20.7953  -10.8672    0.0000 C    0  0  0  0  0  0  0  0  0  0  0  0
   18.1353  -10.8672    0.0000 C    0  0  0  0  0  0  0  0  0  0  0  0
   20.1303   -9.7154    0.0000 C    0  0  0  0  0  0  0  0  0  0  0  0
   18.8003   -9.7154    0.0000 C    0  0  0  0  0  0  0  0  0  0  0  0
   18.1353   -8.5636    0.0000 C    0  0  0  0  0  0  0  0  0  0  0  0
   16.9835   -9.2286    0.0000 F    0  0  0  0  0  0  0  0  0  0  0  0
   19.2871   -7.8986    0.0000 F    0  0  0  0  0  0  0  0  0  0  0  0
   17.4703   -7.4118    0.0000 F    0  0  0  0  0  0  0  0  0  0  0  0
   24.7853  -13.1709    0.0000 C    0  0  0  0  0  0  0  0  0  0  0  0
   26.1153  -13.1709    0.0000 C    0  0  0  0  0  0  0  0  0  0  0  0
   24.1203  -14.3227    0.0000 C    0  0  0  0  0  0  0  0  0  0  0  0
   26.7803  -14.3227    0.0000 C    0  0  0  0  0  0  0  0  0  0  0  0
   24.7853  -15.4745    0.0000 C    0  0  0  0  0  0  0  0  0  0  0  0
   26.1153  -15.4745    0.0000 C    0  0  0  0  0  0  0  0  0  0  0  0
   26.7803  -16.6263    0.0000 C    0  0  0  0  0  0  0  0  0  0  0  0
   27.9321  -15.9613    0.0000 F    0  0  0  0  0  0  0  0  0  0  0  0
   25.6285  -17.2913    0.0000 F    0  0  0  0  0  0  0  0  0  0  0  0
   27.4453  -17.7781    0.0000 F    0  0  0  0  0  0  0  0  0  0  0  0
   24.7853  -10.8672    0.0000 C    0  0  0  0  0  0  0  0  0  0  0  0
   24.1203   -9.7154    0.0000 C    0  0  0  0  0  0  0  0  0  0  0  0
   26.1153  -10.8672    0.0000 C    0  0  0  0  0  0  0  0  0  0  0  0
   24.7853   -8.5636    0.0000 C    0  0  0  0  0  0  0  0  0  0  0  0
   26.7803   -9.7154    0.0000 C    0  0  0  0  0  0  0  0  0  0  0  0
   26.1153   -8.5636    0.0000 C    0  0  0  0  0  0  0  0  0  0  0  0
   26.7803   -7.4118    0.0000 C    0  0  0  0  0  0  0  0  0  0  0  0
   25.6285   -6.7468    0.0000 F    0  0  0  0  0  0  0  0  0  0  0  0
   27.9321   -8.0768    0.0000 F    0  0  0  0  0  0  0  0  0  0  0  0
   27.4453   -6.2600    0.0000 F    0  0  0  0  0  0  0  0  0  0  0  0
   24.1203  -12.0191    0.0000 P    0  0  0  0  0  0  0  0  0  0  0  0
   22.7903  -12.0191    0.0000 C    0  0  0  0  0  0  0  0  0  0  0  0
   22.1253  -13.1709    0.0000 C    0  0  0  0  0  0  0  0  0  0  0  0
   20.7953  -13.1709    0.0000 P    0  0  0  0  0  0  0  0  0  0  0  0
    7.3270  -13.1690    0.0000 C    0  0  0  0  0  0  0  0  0  0  0  0
    7.9920  -14.3208    0.0000 C    0  0  0  0  0  0  0  0  0  0  0  0
    5.9970  -13.1690    0.0000 C    0  0  0  0  0  0  0  0  0  0  0  0
    7.3270  -15.4726    0.0000 C    0  0  0  0  0  0  0  0  0  0  0  0
    5.3320  -14.3208    0.0000 C    0  0  0  0  0  0  0  0  0  0  0  0
    5.9970  -15.4726    0.0000 C    0  0  0  0  0  0  0  0  0  0  0  0
    5.3320  -16.6244    0.0000 C    0  0  0  0  0  0  0  0  0  0  0  0
    6.4838  -17.2894    0.0000 F    0  0  0  0  0  0  0  0  0  0  0  0
    4.1802  -15.9594    0.0000 F    0  0  0  0  0  0  0  0  0  0  0  0
    4.6670  -17.7762    0.0000 F    0  0  0  0  0  0  0  0  0  0  0  0
    7.3270  -10.8653    0.0000 C    0  0  0  0  0  0  0  0  0  0  0  0
    5.9970  -10.8653    0.0000 C    0  0  0  0  0  0  0  0  0  0  0  0
    7.9920   -9.7135    0.0000 C    0  0  0  0  0  0  0  0  0  0  0  0
    5.3320   -9.7135    0.0000 C    0  0  0  0  0  0  0  0  0  0  0  0
    7.3270   -8.5617    0.0000 C    0  0  0  0  0  0  0  0  0  0  0  0
    5.9970   -8.5617    0.0000 C    0  0  0  0  0  0  0  0  0  0  0  0
    5.3320   -7.4099    0.0000 C    0  0  0  0  0  0  0  0  0  0  0  0
    4.1802   -8.0749    0.0000 F    0  0  0  0  0  0  0  0  0  0  0  0
    6.4838   -6.7449    0.0000 F    0  0  0  0  0  0  0  0  0  0  0  0
    4.6670   -6.2581    0.0000 F    0  0  0  0  0  0  0  0  0  0  0  0
   11.9820  -12.0171    0.0000 C    0  0  0  0  0  0  0  0  0  0  0  0
   13.3120  -12.0171    0.0000 C    0  0  0  0  0  0  0  0  0  0  0  0
   11.3170  -13.1690    0.0000 C    0  0  0  0  0  0  0  0  0  0  0  0
   13.9770  -13.1690    0.0000 C    0  0  0  0  0  0  0  0  0  0  0  0
   11.9820  -14.3208    0.0000 C    0  0  0  0  0  0  0  0  0  0  0  0
   13.3120  -14.3208    0.0000 C    0  0  0  0  0  0  0  0  0  0  0  0
   13.9770  -15.4726    0.0000 C    0  0  0  0  0  0  0  0  0  0  0  0
   15.1288  -14.8076    0.0000 F    0  0  0  0  0  0  0  0  0  0  0  0
   12.8252  -16.1376    0.0000 F    0  0  0  0  0  0  0  0  0  0  0  0
   14.6420  -16.6244    0.0000 F    0  0  0  0  0  0  0  0  0  0  0  0
   11.9820   -9.7135    0.0000 C    0  0  0  0  0  0  0  0  0  0  0  0
   11.3170   -8.5617    0.0000 C    0  0  0  0  0  0  0  0  0  0  0  0
   13.3120   -9.7135    0.0000 C    0  0  0  0  0  0  0  0  0  0  0  0
   11.9820   -7.4099    0.0000 C    0  0  0  0  0  0  0  0  0  0  0  0
   13.9770   -8.5617    0.0000 C    0  0  0  0  0  0  0  0  0  0  0  0
   13.3120   -7.4099    0.0000 C    0  0  0  0  0  0  0  0  0  0  0  0
   13.9770   -6.2581    0.0000 C    0  0  0  0  0  0  0  0  0  0  0  0
   12.8252   -5.5931    0.0000 F    0  0  0  0  0  0  0  0  0  0  0  0
   15.1288   -6.9231    0.0000 F    0  0  0  0  0  0  0  0  0  0  0  0
   14.6420   -5.1063    0.0000 F    0  0  0  0  0  0  0  0  0  0  0  0
   11.3170  -10.8653    0.0000 P    0  0  0  0  0  0  0  0  0  0  0  0
    9.9870  -10.8653    0.0000 C    0  0  0  0  0  0  0  0  0  0  0  0
    9.3220  -12.0171    0.0000 C    0  0  0  0  0  0  0  0  0  0  0  0
    7.9920  -12.0171    0.0000 P    0  0  0  0  0  0  0  0  0  0  0  0
   14.8864  -10.8804    0.0000 Rh   0  3  0  0  0  0  0  0  0  0  0  0
   31.3752  -12.5148    0.0000 Cl   0  5  0  0  0  0  0  0  0  0  0  0
  1  2  1  0  0  0  0
  1  3  2  0  0  0  0
  2  4  2  0  0  0  0
  3  5  1  0  0  0  0
  4  6  1  0  0  0  0
  5  6  2  0  0  0  0
  6  7  1  0  0  0  0
  7  8  1  0  0  0  0
  7  9  1  0  0  0  0
  7 10  1  0  0  0  0
 11 12  1  0  0  0  0
 11 13  2  0  0  0  0
 12 14  2  0  0  0  0
 13 15  1  0  0  0  0
 14 16  1  0  0  0  0
 15 16  2  0  0  0  0
 16 17  1  0  0  0  0
 17 18  1  0  0  0  0
 17 19  1  0  0  0  0
 17 20  1  0  0  0  0
 21 22  1  0  0  0  0
 21 23  2  0  0  0  0
 22 24  2  0  0  0  0
 23 25  1  0  0  0  0
 24 26  1  0  0  0  0
 25 26  2  0  0  0  0
 26 27  1  0  0  0  0
 27 28  1  0  0  0  0
 27 29  1  0  0  0  0
 27 30  1  0  0  0  0
 31 32  1  0  0  0  0
 31 33  2  0  0  0  0
 32 34  2  0  0  0  0
 33 35  1  0  0  0  0
 34 36  1  0  0  0  0
 35 36  2  0  0  0  0
 36 37  1  0  0  0  0
 37 38  1  0  0  0  0
 37 39  1  0  0  0  0
 37 40  1  0  0  0  0
 31 41  1  0  0  0  0
 21 41  1  0  0  0  0
 41 42  1  0  0  0  0
 42 43  1  0  0  0  0
 43 44  1  0  0  0  0
 11 44  1  0  0  0  0
  1 44  1  0  0  0  0
 45 46  1  0  0  0  0
 45 47  2  0  0  0  0
 46 48  2  0  0  0  0
 47 49  1  0  0  0  0
 48 50  1  0  0  0  0
 49 50  2  0  0  0  0
 50 51  1  0  0  0  0
 51 52  1  0  0  0  0
 51 53  1  0  0  0  0
 51 54  1  0  0  0  0
 55 56  1  0  0  0  0
 55 57  2  0  0  0  0
 56 58  2  0  0  0  0
 57 59  1  0  0  0  0
 58 60  1  0  0  0  0
 59 60  2  0  0  0  0
 60 61  1  0  0  0  0
 61 62  1  0  0  0  0
 61 63  1  0  0  0  0
 61 64  1  0  0  0  0
 65 66  1  0  0  0  0
 65 67  2  0  0  0  0
 66 68  2  0  0  0  0
 67 69  1  0  0  0  0
 68 70  1  0  0  0  0
 69 70  2  0  0  0  0
 70 71  1  0  0  0  0
 71 72  1  0  0  0  0
 71 73  1  0  0  0  0
 71 74  1  0  0  0  0
 75 76  1  0  0  0  0
 75 77  2  0  0  0  0
 76 78  2  0  0  0  0
 77 79  1  0  0  0  0
 78 80  1  0  0  0  0
 79 80  2  0  0  0  0
 80 81  1  0  0  0  0
 81 82  1  0  0  0  0
 81 83  1  0  0  0  0
 81 84  1  0  0  0  0
 75 85  1  0  0  0  0
 65 85  1  0  0  0  0
 85 86  1  0  0  0  0
 86 87  1  0  0  0  0
 87 88  1  0  0  0  0
 55 88  1  0  0  0  0
 45 88  1  0  0  0  0
 85 89  1  0  0  0  0
 88 89  1  0  0  0  0
 44 89  1  0  0  0  0
 41 89  1  0  0  0  0
M  END
> <NMREDATA_VERSION>
1.1

> <NMREDATA_LEVEL>
0

> <NMREDATA_SOLVENT>
acetone

> <NMREDATA_TEMPERATURE>
298

> <NMREDATA_FORMULA>
C60H45ClF24P4Rh

> <NMREDATA_SMILES>
FC(c1ccc(cc1)P1(CCP([Rh]21P(CCP2(c1ccc(cc1)C(F)(F)F)c1ccc(cc1)C(F)(F)F)(c1ccc(cc1)C(F)(F)F)c1ccc(cc1)C(F)(F)F)(c1ccc(cc1)C(F)(F)F)c1ccc(cc1)C(F)(F)F)c1ccc(cc1)C(F)(F)F)(F)F.Cl

> <NMREDATA_ASSIGNMENT>
Rh89, -1179.00, 89

> <NMREDATA_1D_103Rh>
-1179.00, L=Rh89

$$$$

  ACD/LABS03132411112D

 96104  0  0  0  0  0  0  0  0  2 V2000
   20.1303  -14.3227    0.0000 C    0  0  0  0  0  0  0  0  0  0  0  0
   20.7953  -15.4745    0.0000 C    0  0  0  0  0  0  0  0  0  0  0  0
   18.8003  -14.3227    0.0000 C    0  0  0  0  0  0  0  0  0  0  0  0
   20.1303  -16.6263    0.0000 C    0  0  0  0  0  0  0  0  0  0  0  0
   18.1353  -15.4745    0.0000 C    0  0  0  0  0  0  0  0  0  0  0  0
   18.8003  -16.6263    0.0000 C    0  0  0  0  0  0  0  0  0  0  0  0
   18.1353  -17.7781    0.0000 C    0  0  0  0  0  0  0  0  0  0  0  0
   19.2871  -18.4431    0.0000 F    0  0  0  0  0  0  0  0  0  0  0  0
   16.9835  -17.1131    0.0000 F    0  0  0  0  0  0  0  0  0  0  0  0
   17.4703  -18.9299    0.0000 F    0  0  0  0  0  0  0  0  0  0  0  0
   20.1303  -12.0191    0.0000 C    0  0  0  0  0  0  0  0  0  0  0  0
   18.8003  -12.0191    0.0000 C    0  0  0  0  0  0  0  0  0  0  0  0
   20.7953  -10.8672    0.0000 C    0  0  0  0  0  0  0  0  0  0  0  0
   18.1353  -10.8672    0.0000 C    0  0  0  0  0  0  0  0  0  0  0  0
   20.1303   -9.7154    0.0000 C    0  0  0  0  0  0  0  0  0  0  0  0
   18.8003   -9.7154    0.0000 C    0  0  0  0  0  0  0  0  0  0  0  0
   18.1353   -8.5636    0.0000 C    0  0  0  0  0  0  0  0  0  0  0  0
   16.9835   -9.2286    0.0000 F    0  0  0  0  0  0  0  0  0  0  0  0
   19.2871   -7.8986    0.0000 F    0  0  0  0  0  0  0  0  0  0  0  0
   17.4703   -7.4118    0.0000 F    0  0  0  0  0  0  0  0  0  0  0  0
   24.7853  -13.1709    0.0000 C    0  0  0  0  0  0  0  0  0  0  0  0
   26.1153  -13.1709    0.0000 C    0  0  0  0  0  0  0  0  0  0  0  0
   24.1203  -14.3227    0.0000 C    0  0  0  0  0  0  0  0  0  0  0  0
   26.7803  -14.3227    0.0000 C    0  0  0  0  0  0  0  0  0  0  0  0
   24.7853  -15.4745    0.0000 C    0  0  0  0  0  0  0  0  0  0  0  0
   26.1153  -15.4745    0.0000 C    0  0  0  0  0  0  0  0  0  0  0  0
   26.7803  -16.6263    0.0000 C    0  0  0  0  0  0  0  0  0  0  0  0
   27.9321  -15.9613    0.0000 F    0  0  0  0  0  0  0  0  0  0  0  0
   25.6285  -17.2913    0.0000 F    0  0  0  0  0  0  0  0  0  0  0  0
   27.4453  -17.7781    0.0000 F    0  0  0  0  0  0  0  0  0  0  0  0
   24.7853  -10.8672    0.0000 C    0  0  0  0  0  0  0  0  0  0  0  0
   24.1203   -9.7154    0.0000 C    0  0  0  0  0  0  0  0  0  0  0  0
   26.1153  -10.8672    0.0000 C    0  0  0  0  0  0  0  0  0  0  0  0
   24.7853   -8.5636    0.0000 C    0  0  0  0  0  0  0  0  0  0  0  0
   26.7803   -9.7154    0.0000 C    0  0  0  0  0  0  0  0  0  0  0  0
   26.1153   -8.5636    0.0000 C    0  0  0  0  0  0  0  0  0  0  0  0
   26.7803   -7.4118    0.0000 C    0  0  0  0  0  0  0  0  0  0  0  0
   25.6285   -6.7468    0.0000 F    0  0  0  0  0  0  0  0  0  0  0  0
   27.9321   -8.0768    0.0000 F    0  0  0  0  0  0  0  0  0  0  0  0
   27.4453   -6.2600    0.0000 F    0  0  0  0  0  0  0  0  0  0  0  0
   24.1203  -12.0191    0.0000 P    0  0  0  0  0  0  0  0  0  0  0  0
   22.7903  -12.0191    0.0000 C    0  0  0  0  0  0  0  0  0  0  0  0
   22.1253  -13.1709    0.0000 C    0  0  0  0  0  0  0  0  0  0  0  0
   20.7953  -13.1709    0.0000 P    0  0  0  0  0  0  0  0  0  0  0  0
    7.3270  -13.1690    0.0000 C    0  0  0  0  0  0  0  0  0  0  0  0
    7.9920  -14.3208    0.0000 C    0  0  0  0  0  0  0  0  0  0  0  0
    5.9970  -13.1690    0.0000 C    0  0  0  0  0  0  0  0  0  0  0  0
    7.3270  -15.4726    0.0000 C    0  0  0  0  0  0  0  0  0  0  0  0
    5.3320  -14.3208    0.0000 C    0  0  0  0  0  0  0  0  0  0  0  0
    5.9970  -15.4726    0.0000 C    0  0  0  0  0  0  0  0  0  0  0  0
    5.3320  -16.6244    0.0000 C    0  0  0  0  0  0  0  0  0  0  0  0
    6.4838  -17.2894    0.0000 F    0  0  0  0  0  0  0  0  0  0  0  0
    4.1802  -15.9594    0.0000 F    0  0  0  0  0  0  0  0  0  0  0  0
    4.6670  -17.7762    0.0000 F    0  0  0  0  0  0  0  0  0  0  0  0
    7.3270  -10.8653    0.0000 C    0  0  0  0  0  0  0  0  0  0  0  0
    5.9970  -10.8653    0.0000 C    0  0  0  0  0  0  0  0  0  0  0  0
    7.9920   -9.7135    0.0000 C    0  0  0  0  0  0  0  0  0  0  0  0
    5.3320   -9.7135    0.0000 C    0  0  0  0  0  0  0  0  0  0  0  0
    7.3270   -8.5617    0.0000 C    0  0  0  0  0  0  0  0  0  0  0  0
    5.9970   -8.5617    0.0000 C    0  0  0  0  0  0  0  0  0  0  0  0
    5.3320   -7.4099    0.0000 C    0  0  0  0  0  0  0  0  0  0  0  0
    4.1802   -8.0749    0.0000 F    0  0  0  0  0  0  0  0  0  0  0  0
    6.4838   -6.7449    0.0000 F    0  0  0  0  0  0  0  0  0  0  0  0
    4.6670   -6.2581    0.0000 F    0  0  0  0  0  0  0  0  0  0  0  0
   11.9820  -12.0171    0.0000 C    0  0  0  0  0  0  0  0  0  0  0  0
   13.3120  -12.0171    0.0000 C    0  0  0  0  0  0  0  0  0  0  0  0
   11.3170  -13.1690    0.0000 C    0  0  0  0  0  0  0  0  0  0  0  0
   13.9770  -13.1690    0.0000 C    0  0  0  0  0  0  0  0  0  0  0  0
   11.9820  -14.3208    0.0000 C    0  0  0  0  0  0  0  0  0  0  0  0
   13.3120  -14.3208    0.0000 C    0  0  0  0  0  0  0  0  0  0  0  0
   13.9770  -15.4726    0.0000 C    0  0  0  0  0  0  0  0  0  0  0  0
   15.1288  -14.8076    0.0000 F    0  0  0  0  0  0  0  0  0  0  0  0
   12.8252  -16.1376    0.0000 F    0  0  0  0  0  0  0  0  0  0  0  0
   14.6420  -16.6244    0.0000 F    0  0  0  0  0  0  0  0  0  0  0  0
   11.9820   -9.7135    0.0000 C    0  0  0  0  0  0  0  0  0  0  0  0
   11.3170   -8.5617    0.0000 C    0  0  0  0  0  0  0  0  0  0  0  0
   13.3120   -9.7135    0.0000 C    0  0  0  0  0  0  0  0  0  0  0  0
   11.9820   -7.4099    0.0000 C    0  0  0  0  0  0  0  0  0  0  0  0
   13.9770   -8.5617    0.0000 C    0  0  0  0  0  0  0  0  0  0  0  0
   13.3120   -7.4099    0.0000 C    0  0  0  0  0  0  0  0  0  0  0  0
   13.9770   -6.2581    0.0000 C    0  0  0  0  0  0  0  0  0  0  0  0
   12.8252   -5.5931    0.0000 F    0  0  0  0  0  0  0  0  0  0  0  0
   15.1288   -6.9231    0.0000 F    0  0  0  0  0  0  0  0  0  0  0  0
   14.6420   -5.1063    0.0000 F    0  0  0  0  0  0  0  0  0  0  0  0
   11.3170  -10.8653    0.0000 P    0  0  0  0  0  0  0  0  0  0  0  0
    9.9870  -10.8653    0.0000 C    0  0  0  0  0  0  0  0  0  0  0  0
    9.3220  -12.0171    0.0000 C    0  0  0  0  0  0  0  0  0  0  0  0
    7.9920  -12.0171    0.0000 P    0  0  0  0  0  0  0  0  0  0  0  0
   14.8864  -10.8804    0.0000 Rh   0  3  0  0  0  0  0  0  0  0  0  0
   31.5034  -12.1703    0.0000 P    0  5  0  0  0  0  0  0  0  0  0  0
   32.0802  -11.1711    0.0000 F    0  0  0  0  0  0  0  0  0  0  0  0
   32.6571  -12.1703    0.0000 F    0  0  0  0  0  0  0  0  0  0  0  0
   32.0802  -13.1695    0.0000 F    0  0  0  0  0  0  0  0  0  0  0  0
   30.3496  -12.1703    0.0000 F    0  0  0  0  0  0  0  0  0  0  0  0
   30.9265  -11.1711    0.0000 F    0  0  0  0  0  0  0  0  0  0  0  0
   30.9265  -13.1695    0.0000 F    0  0  0  0  0  0  0  0  0  0  0  0
  1  2  1  0  0  0  0
  1  3  2  0  0  0  0
  2  4  2  0  0  0  0
  3  5  1  0  0  0  0
  4  6  1  0  0  0  0
  5  6  2  0  0  0  0
  6  7  1  0  0  0  0
  7  8  1  0  0  0  0
  7  9  1  0  0  0  0
  7 10  1  0  0  0  0
 11 12  1  0  0  0  0
 11 13  2  0  0  0  0
 12 14  2  0  0  0  0
 13 15  1  0  0  0  0
 14 16  1  0  0  0  0
 15 16  2  0  0  0  0
 16 17  1  0  0  0  0
 17 18  1  0  0  0  0
 17 19  1  0  0  0  0
 17 20  1  0  0  0  0
 21 22  1  0  0  0  0
 21 23  2  0  0  0  0
 22 24  2  0  0  0  0
 23 25  1  0  0  0  0
 24 26  1  0  0  0  0
 25 26  2  0  0  0  0
 26 27  1  0  0  0  0
 27 28  1  0  0  0  0
 27 29  1  0  0  0  0
 27 30  1  0  0  0  0
 31 32  1  0  0  0  0
 31 33  2  0  0  0  0
 32 34  2  0  0  0  0
 33 35  1  0  0  0  0
 34 36  1  0  0  0  0
 35 36  2  0  0  0  0
 36 37  1  0  0  0  0
 37 38  1  0  0  0  0
 37 39  1  0  0  0  0
 37 40  1  0  0  0  0
 31 41  1  0  0  0  0
 21 41  1  0  0  0  0
 41 42  1  0  0  0  0
 42 43  1  0  0  0  0
 43 44  1  0  0  0  0
 11 44  1  0  0  0  0
  1 44  1  0  0  0  0
 45 46  1  0  0  0  0
 45 47  2  0  0  0  0
 46 48  2  0  0  0  0
 47 49  1  0  0  0  0
 48 50  1  0  0  0  0
 49 50  2  0  0  0  0
 50 51  1  0  0  0  0
 51 52  1  0  0  0  0
 51 53  1  0  0  0  0
 51 54  1  0  0  0  0
 55 56  1  0  0  0  0
 55 57  2  0  0  0  0
 56 58  2  0  0  0  0
 57 59  1  0  0  0  0
 58 60  1  0  0  0  0
 59 60  2  0  0  0  0
 60 61  1  0  0  0  0
 61 62  1  0  0  0  0
 61 63  1  0  0  0  0
 61 64  1  0  0  0  0
 65 66  1  0  0  0  0
 65 67  2  0  0  0  0
 66 68  2  0  0  0  0
 67 69  1  0  0  0  0
 68 70  1  0  0  0  0
 69 70  2  0  0  0  0
 70 71  1  0  0  0  0
 71 72  1  0  0  0  0
 71 73  1  0  0  0  0
 71 74  1  0  0  0  0
 75 76  1  0  0  0  0
 75 77  2  0  0  0  0
 76 78  2  0  0  0  0
 77 79  1  0  0  0  0
 78 80  1  0  0  0  0
 79 80  2  0  0  0  0
 80 81  1  0  0  0  0
 81 82  1  0  0  0  0
 81 83  1  0  0  0  0
 81 84  1  0  0  0  0
 75 85  1  0  0  0  0
 65 85  1  0  0  0  0
 85 86  1  0  0  0  0
 86 87  1  0  0  0  0
 87 88  1  0  0  0  0
 55 88  1  0  0  0  0
 45 88  1  0  0  0  0
 85 89  1  0  0  0  0
 88 89  1  0  0  0  0
 44 89  1  0  0  0  0
 41 89  1  0  0  0  0
 90 91  1  0  0  0  0
 90 92  1  0  0  0  0
 90 93  1  0  0  0  0
 90 94  1  0  0  0  0
 90 95  1  0  0  0  0
 90 96  1  0  0  0  0
M  END
> <NMREDATA_VERSION>
1.1

> <NMREDATA_LEVEL>
0

> <NMREDATA_SOLVENT>
acetone

> <NMREDATA_TEMPERATURE>
298

> <NMREDATA_FORMULA>
C60H44F30P5Rh

> <NMREDATA_SMILES>
F[P](F)(F)(F)(F)F.FC(c1ccc(cc1)P1(CCP([Rh]21P(CCP2(c1ccc(cc1)C(F)(F)F)c1ccc(cc1)C(F)(F)F)(c1ccc(cc1)C(F)(F)F)c1ccc(cc1)C(F)(F)F)(c1ccc(cc1)C(F)(F)F)c1ccc(cc1)C(F)(F)F)c1ccc(cc1)C(F)(F)F)(F)F

> <NMREDATA_ASSIGNMENT>
Rh89, -1215.00, 89

> <NMREDATA_1D_103Rh>
-1215.00, L=Rh89

$$$$

  ACD/LABS03132411132D

 98106  0  0  0  0  0  0  0  0  2 V2000
   20.1303  -14.3227    0.0000 C    0  0  0  0  0  0  0  0  0  0  0  0
   20.7953  -15.4745    0.0000 C    0  0  0  0  0  0  0  0  0  0  0  0
   18.8003  -14.3227    0.0000 C    0  0  0  0  0  0  0  0  0  0  0  0
   20.1303  -16.6263    0.0000 C    0  0  0  0  0  0  0  0  0  0  0  0
   18.1353  -15.4745    0.0000 C    0  0  0  0  0  0  0  0  0  0  0  0
   18.8003  -16.6263    0.0000 C    0  0  0  0  0  0  0  0  0  0  0  0
   20.1303  -12.0191    0.0000 C    0  0  0  0  0  0  0  0  0  0  0  0
   18.8003  -12.0191    0.0000 C    0  0  0  0  0  0  0  0  0  0  0  0
   20.7953  -10.8672    0.0000 C    0  0  0  0  0  0  0  0  0  0  0  0
   18.1353  -10.8672    0.0000 C    0  0  0  0  0  0  0  0  0  0  0  0
   20.1303   -9.7154    0.0000 C    0  0  0  0  0  0  0  0  0  0  0  0
   18.8003   -9.7154    0.0000 C    0  0  0  0  0  0  0  0  0  0  0  0
   24.7853  -13.1709    0.0000 C    0  0  0  0  0  0  0  0  0  0  0  0
   26.1153  -13.1709    0.0000 C    0  0  0  0  0  0  0  0  0  0  0  0
   24.1203  -14.3227    0.0000 C    0  0  0  0  0  0  0  0  0  0  0  0
   26.7803  -14.3227    0.0000 C    0  0  0  0  0  0  0  0  0  0  0  0
   24.7853  -15.4745    0.0000 C    0  0  0  0  0  0  0  0  0  0  0  0
   26.1153  -15.4745    0.0000 C    0  0  0  0  0  0  0  0  0  0  0  0
   24.7853  -10.8672    0.0000 C    0  0  0  0  0  0  0  0  0  0  0  0
   24.1203   -9.7154    0.0000 C    0  0  0  0  0  0  0  0  0  0  0  0
   26.1153  -10.8672    0.0000 C    0  0  0  0  0  0  0  0  0  0  0  0
   24.7853   -8.5636    0.0000 C    0  0  0  0  0  0  0  0  0  0  0  0
   26.7803   -9.7154    0.0000 C    0  0  0  0  0  0  0  0  0  0  0  0
   26.1153   -8.5636    0.0000 C    0  0  0  0  0  0  0  0  0  0  0  0
   24.1203  -12.0191    0.0000 P    0  0  0  0  0  0  0  0  0  0  0  0
   22.7903  -12.0191    0.0000 C    0  0  0  0  0  0  0  0  0  0  0  0
   22.1253  -13.1709    0.0000 C    0  0  0  0  0  0  0  0  0  0  0  0
   20.7953  -13.1709    0.0000 P    0  0  0  0  0  0  0  0  0  0  0  0
    7.3270  -13.1690    0.0000 C    0  0  0  0  0  0  0  0  0  0  0  0
    7.9920  -14.3208    0.0000 C    0  0  0  0  0  0  0  0  0  0  0  0
    5.9970  -13.1690    0.0000 C    0  0  0  0  0  0  0  0  0  0  0  0
    7.3270  -15.4726    0.0000 C    0  0  0  0  0  0  0  0  0  0  0  0
    5.3320  -14.3208    0.0000 C    0  0  0  0  0  0  0  0  0  0  0  0
    5.9970  -15.4726    0.0000 C    0  0  0  0  0  0  0  0  0  0  0  0
    7.3270  -10.8653    0.0000 C    0  0  0  0  0  0  0  0  0  0  0  0
    5.9970  -10.8653    0.0000 C    0  0  0  0  0  0  0  0  0  0  0  0
    7.9920   -9.7135    0.0000 C    0  0  0  0  0  0  0  0  0  0  0  0
    5.3320   -9.7135    0.0000 C    0  0  0  0  0  0  0  0  0  0  0  0
    7.3270   -8.5617    0.0000 C    0  0  0  0  0  0  0  0  0  0  0  0
    5.9970   -8.5617    0.0000 C    0  0  0  0  0  0  0  0  0  0  0  0
   11.9820  -12.0171    0.0000 C    0  0  0  0  0  0  0  0  0  0  0  0
   13.3120  -12.0171    0.0000 C    0  0  0  0  0  0  0  0  0  0  0  0
   11.3170  -13.1690    0.0000 C    0  0  0  0  0  0  0  0  0  0  0  0
   13.9770  -13.1690    0.0000 C    0  0  0  0  0  0  0  0  0  0  0  0
   11.9820  -14.3208    0.0000 C    0  0  0  0  0  0  0  0  0  0  0  0
   13.3120  -14.3208    0.0000 C    0  0  0  0  0  0  0  0  0  0  0  0
   11.9820   -9.7135    0.0000 C    0  0  0  0  0  0  0  0  0  0  0  0
   11.3170   -8.5617    0.0000 C    0  0  0  0  0  0  0  0  0  0  0  0
   13.3120   -9.7135    0.0000 C    0  0  0  0  0  0  0  0  0  0  0  0
   11.9820   -7.4099    0.0000 C    0  0  0  0  0  0  0  0  0  0  0  0
   13.9770   -8.5617    0.0000 C    0  0  0  0  0  0  0  0  0  0  0  0
   13.3120   -7.4099    0.0000 C    0  0  0  0  0  0  0  0  0  0  0  0
   11.3170  -10.8653    0.0000 P    0  0  0  0  0  0  0  0  0  0  0  0
    9.9870  -10.8653    0.0000 C    0  0  0  0  0  0  0  0  0  0  0  0
    9.3220  -12.0171    0.0000 C    0  0  0  0  0  0  0  0  0  0  0  0
    7.9920  -12.0171    0.0000 P    0  0  0  0  0  0  0  0  0  0  0  0
   14.8864  -10.8804    0.0000 Rh   0  3  0  0  0  0  0  0  0  0  0  0
    5.6245   -7.8839    0.0000 F    0  0  0  0  0  0  0  0  0  0  0  0
    8.2524   -7.7877    0.0000 F    0  0  0  0  0  0  0  0  0  0  0  0
    8.7011   -9.6786    0.0000 F    0  0  0  0  0  0  0  0  0  0  0  0
    5.4322  -11.7136    0.0000 F    0  0  0  0  0  0  0  0  0  0  0  0
    4.3586  -10.1913    0.0000 F    0  0  0  0  0  0  0  0  0  0  0  0
    5.4802  -13.2039    0.0000 F    0  0  0  0  0  0  0  0  0  0  0  0
    4.5829  -14.6460    0.0000 F    0  0  0  0  0  0  0  0  0  0  0  0
    5.8167  -16.5849    0.0000 F    0  0  0  0  0  0  0  0  0  0  0  0
    7.4833  -16.3286    0.0000 F    0  0  0  0  0  0  0  0  0  0  0  0
    9.5183  -14.2454    0.0000 F    0  0  0  0  0  0  0  0  0  0  0  0
   11.3771  -14.9986    0.0000 F    0  0  0  0  0  0  0  0  0  0  0  0
   13.7968  -15.2870    0.0000 F    0  0  0  0  0  0  0  0  0  0  0  0
   14.8383  -13.2039    0.0000 F    0  0  0  0  0  0  0  0  0  0  0  0
   14.0371  -11.4893    0.0000 F    0  0  0  0  0  0  0  0  0  0  0  0
   10.3035  -13.3160    0.0000 F    0  0  0  0  0  0  0  0  0  0  0  0
   13.6205  -10.1272    0.0000 F    0  0  0  0  0  0  0  0  0  0  0  0
   14.6140   -8.5408    0.0000 F    0  0  0  0  0  0  0  0  0  0  0  0
   13.6205   -6.5378    0.0000 F    0  0  0  0  0  0  0  0  0  0  0  0
   11.3451   -6.9224    0.0000 F    0  0  0  0  0  0  0  0  0  0  0  0
   10.2875   -8.8613    0.0000 F    0  0  0  0  0  0  0  0  0  0  0  0
   17.7387   -8.7171    0.0000 F    0  0  0  0  0  0  0  0  0  0  0  0
   20.3827   -8.9094    0.0000 F    0  0  0  0  0  0  0  0  0  0  0  0
   21.7287  -10.6881    0.0000 F    0  0  0  0  0  0  0  0  0  0  0  0
   17.6746  -12.7552    0.0000 F    0  0  0  0  0  0  0  0  0  0  0  0
   17.2900  -10.4157    0.0000 F    0  0  0  0  0  0  0  0  0  0  0  0
   22.3376  -15.5274    0.0000 F    0  0  0  0  0  0  0  0  0  0  0  0
   20.8313  -17.2900    0.0000 F    0  0  0  0  0  0  0  0  0  0  0  0
   18.4117  -17.3221    0.0000 F    0  0  0  0  0  0  0  0  0  0  0  0
   17.2259  -15.3831    0.0000 F    0  0  0  0  0  0  0  0  0  0  0  0
   18.2034  -13.5083    0.0000 F    0  0  0  0  0  0  0  0  0  0  0  0
   23.4593  -14.9505    0.0000 F    0  0  0  0  0  0  0  0  0  0  0  0
   24.3887  -16.3606    0.0000 F    0  0  0  0  0  0  0  0  0  0  0  0
   26.3116  -16.1363    0.0000 F    0  0  0  0  0  0  0  0  0  0  0  0
   27.6576  -14.0692    0.0000 F    0  0  0  0  0  0  0  0  0  0  0  0
   26.6321  -12.1943    0.0000 F    0  0  0  0  0  0  0  0  0  0  0  0
   26.5519  -11.3130    0.0000 F    0  0  0  0  0  0  0  0  0  0  0  0
   27.4333   -9.6625    0.0000 F    0  0  0  0  0  0  0  0  0  0  0  0
   26.2635   -7.8839    0.0000 F    0  0  0  0  0  0  0  0  0  0  0  0
   24.2765   -8.0601    0.0000 F    0  0  0  0  0  0  0  0  0  0  0  0
   23.1388   -9.5664    0.0000 F    0  0  0  0  0  0  0  0  0  0  0  0
   28.7953  -11.3451    0.0000 Cl   0  5  0  0  0  0  0  0  0  0  0  0
  1  2  1  0  0  0  0
  1  3  2  0  0  0  0
  2  4  2  0  0  0  0
  3  5  1  0  0  0  0
  4  6  1  0  0  0  0
  5  6  2  0  0  0  0
  7  8  1  0  0  0  0
  7  9  2  0  0  0  0
  8 10  2  0  0  0  0
  9 11  1  0  0  0  0
 10 12  1  0  0  0  0
 11 12  2  0  0  0  0
 13 14  1  0  0  0  0
 13 15  2  0  0  0  0
 14 16  2  0  0  0  0
 15 17  1  0  0  0  0
 16 18  1  0  0  0  0
 17 18  2  0  0  0  0
 19 20  1  0  0  0  0
 19 21  2  0  0  0  0
 20 22  2  0  0  0  0
 21 23  1  0  0  0  0
 22 24  1  0  0  0  0
 23 24  2  0  0  0  0
 19 25  1  0  0  0  0
 13 25  1  0  0  0  0
 25 26  1  0  0  0  0
 26 27  1  0  0  0  0
 27 28  1  0  0  0  0
  7 28  1  0  0  0  0
  1 28  1  0  0  0  0
 29 30  1  0  0  0  0
 29 31  2  0  0  0  0
 30 32  2  0  0  0  0
 31 33  1  0  0  0  0
 32 34  1  0  0  0  0
 33 34  2  0  0  0  0
 35 36  1  0  0  0  0
 35 37  2  0  0  0  0
 36 38  2  0  0  0  0
 37 39  1  0  0  0  0
 38 40  1  0  0  0  0
 39 40  2  0  0  0  0
 41 42  1  0  0  0  0
 41 43  2  0  0  0  0
 42 44  2  0  0  0  0
 43 45  1  0  0  0  0
 44 46  1  0  0  0  0
 45 46  2  0  0  0  0
 47 48  1  0  0  0  0
 47 49  2  0  0  0  0
 48 50  2  0  0  0  0
 49 51  1  0  0  0  0
 50 52  1  0  0  0  0
 51 52  2  0  0  0  0
 47 53  1  0  0  0  0
 41 53  1  0  0  0  0
 53 54  1  0  0  0  0
 54 55  1  0  0  0  0
 55 56  1  0  0  0  0
 35 56  1  0  0  0  0
 29 56  1  0  0  0  0
 53 57  1  0  0  0  0
 56 57  1  0  0  0  0
 28 57  1  0  0  0  0
 25 57  1  0  0  0  0
 40 58  1  0  0  0  0
 39 59  1  0  0  0  0
 37 60  1  0  0  0  0
 36 61  1  0  0  0  0
 38 62  1  0  0  0  0
 31 63  1  0  0  0  0
 33 64  1  0  0  0  0
 34 65  1  0  0  0  0
 32 66  1  0  0  0  0
 30 67  1  0  0  0  0
 45 68  1  0  0  0  0
 46 69  1  0  0  0  0
 44 70  1  0  0  0  0
 42 71  1  0  0  0  0
 43 72  1  0  0  0  0
 49 73  1  0  0  0  0
 51 74  1  0  0  0  0
 52 75  1  0  0  0  0
 50 76  1  0  0  0  0
 48 77  1  0  0  0  0
 12 78  1  0  0  0  0
 11 79  1  0  0  0  0
  9 80  1  0  0  0  0
  8 81  1  0  0  0  0
 10 82  1  0  0  0  0
  2 83  1  0  0  0  0
  4 84  1  0  0  0  0
  6 85  1  0  0  0  0
  5 86  1  0  0  0  0
  3 87  1  0  0  0  0
 15 88  1  0  0  0  0
 17 89  1  0  0  0  0
 18 90  1  0  0  0  0
 16 91  1  0  0  0  0
 14 92  1  0  0  0  0
 21 93  1  0  0  0  0
 23 94  1  0  0  0  0
 24 95  1  0  0  0  0
 22 96  1  0  0  0  0
 20 97  1  0  0  0  0
M  END
> <NMREDATA_VERSION>
1.1

> <NMREDATA_LEVEL>
0

> <NMREDATA_SOLVENT>
CD2Cl2

> <NMREDATA_TEMPERATURE>
298

> <NMREDATA_FORMULA>
C52H13ClF40P4Rh

> <NMREDATA_SMILES>
Fc1c(F)c(F)c(c(c1P1(CCP([Rh]21P(CCP2(c1c(F)c(F)c(c(c1F)F)F)c1c(F)c(F)c(c(c1F)F)F)(c1c(F)c(F)c(c(c1F)F)F)c1c(F)c(F)c(c(c1F)F)F)(c1c(F)c(F)c(c(c1F)F)F)c1c(F)c(F)c(c(c1F)F)F)c1c(F)c(F)c(c(c1F)F)F)F)F.Cl

> <NMREDATA_ASSIGNMENT>
Rh57, 163.00, 57

> <NMREDATA_1D_103Rh>
163.00, L=Rh57

$$$$

  ACD/LABS03132411132D

104112  0  0  0  0  0  0  0  0  2 V2000
   20.1303  -14.3227    0.0000 C    0  0  0  0  0  0  0  0  0  0  0  0
   20.7953  -15.4745    0.0000 C    0  0  0  0  0  0  0  0  0  0  0  0
   18.8003  -14.3227    0.0000 C    0  0  0  0  0  0  0  0  0  0  0  0
   20.1303  -16.6263    0.0000 C    0  0  0  0  0  0  0  0  0  0  0  0
   18.1353  -15.4745    0.0000 C    0  0  0  0  0  0  0  0  0  0  0  0
   18.8003  -16.6263    0.0000 C    0  0  0  0  0  0  0  0  0  0  0  0
   20.1303  -12.0191    0.0000 C    0  0  0  0  0  0  0  0  0  0  0  0
   18.8003  -12.0191    0.0000 C    0  0  0  0  0  0  0  0  0  0  0  0
   20.7953  -10.8672    0.0000 C    0  0  0  0  0  0  0  0  0  0  0  0
   18.1353  -10.8672    0.0000 C    0  0  0  0  0  0  0  0  0  0  0  0
   20.1303   -9.7154    0.0000 C    0  0  0  0  0  0  0  0  0  0  0  0
   18.8003   -9.7154    0.0000 C    0  0  0  0  0  0  0  0  0  0  0  0
   24.7853  -13.1709    0.0000 C    0  0  0  0  0  0  0  0  0  0  0  0
   26.1153  -13.1709    0.0000 C    0  0  0  0  0  0  0  0  0  0  0  0
   24.1203  -14.3227    0.0000 C    0  0  0  0  0  0  0  0  0  0  0  0
   26.7803  -14.3227    0.0000 C    0  0  0  0  0  0  0  0  0  0  0  0
   24.7853  -15.4745    0.0000 C    0  0  0  0  0  0  0  0  0  0  0  0
   26.1153  -15.4745    0.0000 C    0  0  0  0  0  0  0  0  0  0  0  0
   24.7853  -10.8672    0.0000 C    0  0  0  0  0  0  0  0  0  0  0  0
   24.1203   -9.7154    0.0000 C    0  0  0  0  0  0  0  0  0  0  0  0
   26.1153  -10.8672    0.0000 C    0  0  0  0  0  0  0  0  0  0  0  0
   24.7853   -8.5636    0.0000 C    0  0  0  0  0  0  0  0  0  0  0  0
   26.7803   -9.7154    0.0000 C    0  0  0  0  0  0  0  0  0  0  0  0
   26.1153   -8.5636    0.0000 C    0  0  0  0  0  0  0  0  0  0  0  0
   24.1203  -12.0191    0.0000 P    0  0  0  0  0  0  0  0  0  0  0  0
   22.7903  -12.0191    0.0000 C    0  0  0  0  0  0  0  0  0  0  0  0
   22.1253  -13.1709    0.0000 C    0  0  0  0  0  0  0  0  0  0  0  0
   20.7953  -13.1709    0.0000 P    0  0  0  0  0  0  0  0  0  0  0  0
    7.3270  -13.1690    0.0000 C    0  0  0  0  0  0  0  0  0  0  0  0
    7.9920  -14.3208    0.0000 C    0  0  0  0  0  0  0  0  0  0  0  0
    5.9970  -13.1690    0.0000 C    0  0  0  0  0  0  0  0  0  0  0  0
    7.3270  -15.4726    0.0000 C    0  0  0  0  0  0  0  0  0  0  0  0
    5.3320  -14.3208    0.0000 C    0  0  0  0  0  0  0  0  0  0  0  0
    5.9970  -15.4726    0.0000 C    0  0  0  0  0  0  0  0  0  0  0  0
    7.3270  -10.8653    0.0000 C    0  0  0  0  0  0  0  0  0  0  0  0
    5.9970  -10.8653    0.0000 C    0  0  0  0  0  0  0  0  0  0  0  0
    7.9920   -9.7135    0.0000 C    0  0  0  0  0  0  0  0  0  0  0  0
    5.3320   -9.7135    0.0000 C    0  0  0  0  0  0  0  0  0  0  0  0
    7.3270   -8.5617    0.0000 C    0  0  0  0  0  0  0  0  0  0  0  0
    5.9970   -8.5617    0.0000 C    0  0  0  0  0  0  0  0  0  0  0  0
   11.9820  -12.0171    0.0000 C    0  0  0  0  0  0  0  0  0  0  0  0
   13.3120  -12.0171    0.0000 C    0  0  0  0  0  0  0  0  0  0  0  0
   11.3170  -13.1690    0.0000 C    0  0  0  0  0  0  0  0  0  0  0  0
   13.9770  -13.1690    0.0000 C    0  0  0  0  0  0  0  0  0  0  0  0
   11.9820  -14.3208    0.0000 C    0  0  0  0  0  0  0  0  0  0  0  0
   13.3120  -14.3208    0.0000 C    0  0  0  0  0  0  0  0  0  0  0  0
   11.9820   -9.7135    0.0000 C    0  0  0  0  0  0  0  0  0  0  0  0
   11.3170   -8.5617    0.0000 C    0  0  0  0  0  0  0  0  0  0  0  0
   13.3120   -9.7135    0.0000 C    0  0  0  0  0  0  0  0  0  0  0  0
   11.9820   -7.4099    0.0000 C    0  0  0  0  0  0  0  0  0  0  0  0
   13.9770   -8.5617    0.0000 C    0  0  0  0  0  0  0  0  0  0  0  0
   13.3120   -7.4099    0.0000 C    0  0  0  0  0  0  0  0  0  0  0  0
   11.3170  -10.8653    0.0000 P    0  0  0  0  0  0  0  0  0  0  0  0
    9.9870  -10.8653    0.0000 C    0  0  0  0  0  0  0  0  0  0  0  0
    9.3220  -12.0171    0.0000 C    0  0  0  0  0  0  0  0  0  0  0  0
    7.9920  -12.0171    0.0000 P    0  0  0  0  0  0  0  0  0  0  0  0
   14.8864  -10.8804    0.0000 Rh   0  3  0  0  0  0  0  0  0  0  0  0
    5.6245   -7.8839    0.0000 F    0  0  0  0  0  0  0  0  0  0  0  0
    8.2524   -7.7877    0.0000 F    0  0  0  0  0  0  0  0  0  0  0  0
    8.7011   -9.6786    0.0000 F    0  0  0  0  0  0  0  0  0  0  0  0
    5.4322  -11.7136    0.0000 F    0  0  0  0  0  0  0  0  0  0  0  0
    4.3586  -10.1913    0.0000 F    0  0  0  0  0  0  0  0  0  0  0  0
    5.4802  -13.2039    0.0000 F    0  0  0  0  0  0  0  0  0  0  0  0
    4.5829  -14.6460    0.0000 F    0  0  0  0  0  0  0  0  0  0  0  0
    5.8167  -16.5849    0.0000 F    0  0  0  0  0  0  0  0  0  0  0  0
    7.4833  -16.3286    0.0000 F    0  0  0  0  0  0  0  0  0  0  0  0
    9.5183  -14.2454    0.0000 F    0  0  0  0  0  0  0  0  0  0  0  0
   11.3771  -14.9986    0.0000 F    0  0  0  0  0  0  0  0  0  0  0  0
   13.7968  -15.2870    0.0000 F    0  0  0  0  0  0  0  0  0  0  0  0
   14.8383  -13.2039    0.0000 F    0  0  0  0  0  0  0  0  0  0  0  0
   14.0371  -11.4893    0.0000 F    0  0  0  0  0  0  0  0  0  0  0  0
   10.3035  -13.3160    0.0000 F    0  0  0  0  0  0  0  0  0  0  0  0
   13.6205  -10.1272    0.0000 F    0  0  0  0  0  0  0  0  0  0  0  0
   14.6140   -8.5408    0.0000 F    0  0  0  0  0  0  0  0  0  0  0  0
   13.6205   -6.5378    0.0000 F    0  0  0  0  0  0  0  0  0  0  0  0
   11.3451   -6.9224    0.0000 F    0  0  0  0  0  0  0  0  0  0  0  0
   10.2875   -8.8613    0.0000 F    0  0  0  0  0  0  0  0  0  0  0  0
   17.7387   -8.7171    0.0000 F    0  0  0  0  0  0  0  0  0  0  0  0
   20.3827   -8.9094    0.0000 F    0  0  0  0  0  0  0  0  0  0  0  0
   21.7287  -10.6881    0.0000 F    0  0  0  0  0  0  0  0  0  0  0  0
   17.6746  -12.7552    0.0000 F    0  0  0  0  0  0  0  0  0  0  0  0
   17.2900  -10.4157    0.0000 F    0  0  0  0  0  0  0  0  0  0  0  0
   22.3376  -15.5274    0.0000 F    0  0  0  0  0  0  0  0  0  0  0  0
   20.8313  -17.2900    0.0000 F    0  0  0  0  0  0  0  0  0  0  0  0
   18.4117  -17.3221    0.0000 F    0  0  0  0  0  0  0  0  0  0  0  0
   17.2259  -15.3831    0.0000 F    0  0  0  0  0  0  0  0  0  0  0  0
   18.2034  -13.5083    0.0000 F    0  0  0  0  0  0  0  0  0  0  0  0
   23.4593  -14.9505    0.0000 F    0  0  0  0  0  0  0  0  0  0  0  0
   24.3887  -16.3606    0.0000 F    0  0  0  0  0  0  0  0  0  0  0  0
   26.3116  -16.1363    0.0000 F    0  0  0  0  0  0  0  0  0  0  0  0
   27.6576  -14.0692    0.0000 F    0  0  0  0  0  0  0  0  0  0  0  0
   26.6321  -12.1943    0.0000 F    0  0  0  0  0  0  0  0  0  0  0  0
   26.5519  -11.3130    0.0000 F    0  0  0  0  0  0  0  0  0  0  0  0
   27.4333   -9.6625    0.0000 F    0  0  0  0  0  0  0  0  0  0  0  0
   26.2635   -7.8839    0.0000 F    0  0  0  0  0  0  0  0  0  0  0  0
   24.2765   -8.0601    0.0000 F    0  0  0  0  0  0  0  0  0  0  0  0
   23.1388   -9.5664    0.0000 F    0  0  0  0  0  0  0  0  0  0  0  0
   31.5034  -12.1703    0.0000 P    0  5  0  0  0  0  0  0  0  0  0  0
   32.0802  -11.1711    0.0000 F    0  0  0  0  0  0  0  0  0  0  0  0
   32.6571  -12.1703    0.0000 F    0  0  0  0  0  0  0  0  0  0  0  0
   32.0802  -13.1695    0.0000 F    0  0  0  0  0  0  0  0  0  0  0  0
   30.3496  -12.1703    0.0000 F    0  0  0  0  0  0  0  0  0  0  0  0
   30.9265  -11.1711    0.0000 F    0  0  0  0  0  0  0  0  0  0  0  0
   30.9265  -13.1695    0.0000 F    0  0  0  0  0  0  0  0  0  0  0  0
  1  2  1  0  0  0  0
  1  3  2  0  0  0  0
  2  4  2  0  0  0  0
  3  5  1  0  0  0  0
  4  6  1  0  0  0  0
  5  6  2  0  0  0  0
  7  8  1  0  0  0  0
  7  9  2  0  0  0  0
  8 10  2  0  0  0  0
  9 11  1  0  0  0  0
 10 12  1  0  0  0  0
 11 12  2  0  0  0  0
 13 14  1  0  0  0  0
 13 15  2  0  0  0  0
 14 16  2  0  0  0  0
 15 17  1  0  0  0  0
 16 18  1  0  0  0  0
 17 18  2  0  0  0  0
 19 20  1  0  0  0  0
 19 21  2  0  0  0  0
 20 22  2  0  0  0  0
 21 23  1  0  0  0  0
 22 24  1  0  0  0  0
 23 24  2  0  0  0  0
 19 25  1  0  0  0  0
 13 25  1  0  0  0  0
 25 26  1  0  0  0  0
 26 27  1  0  0  0  0
 27 28  1  0  0  0  0
  7 28  1  0  0  0  0
  1 28  1  0  0  0  0
 29 30  1  0  0  0  0
 29 31  2  0  0  0  0
 30 32  2  0  0  0  0
 31 33  1  0  0  0  0
 32 34  1  0  0  0  0
 33 34  2  0  0  0  0
 35 36  1  0  0  0  0
 35 37  2  0  0  0  0
 36 38  2  0  0  0  0
 37 39  1  0  0  0  0
 38 40  1  0  0  0  0
 39 40  2  0  0  0  0
 41 42  1  0  0  0  0
 41 43  2  0  0  0  0
 42 44  2  0  0  0  0
 43 45  1  0  0  0  0
 44 46  1  0  0  0  0
 45 46  2  0  0  0  0
 47 48  1  0  0  0  0
 47 49  2  0  0  0  0
 48 50  2  0  0  0  0
 49 51  1  0  0  0  0
 50 52  1  0  0  0  0
 51 52  2  0  0  0  0
 47 53  1  0  0  0  0
 41 53  1  0  0  0  0
 53 54  1  0  0  0  0
 54 55  1  0  0  0  0
 55 56  1  0  0  0  0
 35 56  1  0  0  0  0
 29 56  1  0  0  0  0
 53 57  1  0  0  0  0
 56 57  1  0  0  0  0
 28 57  1  0  0  0  0
 25 57  1  0  0  0  0
 40 58  1  0  0  0  0
 39 59  1  0  0  0  0
 37 60  1  0  0  0  0
 36 61  1  0  0  0  0
 38 62  1  0  0  0  0
 31 63  1  0  0  0  0
 33 64  1  0  0  0  0
 34 65  1  0  0  0  0
 32 66  1  0  0  0  0
 30 67  1  0  0  0  0
 45 68  1  0  0  0  0
 46 69  1  0  0  0  0
 44 70  1  0  0  0  0
 42 71  1  0  0  0  0
 43 72  1  0  0  0  0
 49 73  1  0  0  0  0
 51 74  1  0  0  0  0
 52 75  1  0  0  0  0
 50 76  1  0  0  0  0
 48 77  1  0  0  0  0
 12 78  1  0  0  0  0
 11 79  1  0  0  0  0
  9 80  1  0  0  0  0
  8 81  1  0  0  0  0
 10 82  1  0  0  0  0
  2 83  1  0  0  0  0
  4 84  1  0  0  0  0
  6 85  1  0  0  0  0
  5 86  1  0  0  0  0
  3 87  1  0  0  0  0
 15 88  1  0  0  0  0
 17 89  1  0  0  0  0
 18 90  1  0  0  0  0
 16 91  1  0  0  0  0
 14 92  1  0  0  0  0
 21 93  1  0  0  0  0
 23 94  1  0  0  0  0
 24 95  1  0  0  0  0
 22 96  1  0  0  0  0
 20 97  1  0  0  0  0
 98 99  1  0  0  0  0
 98100  1  0  0  0  0
 98101  1  0  0  0  0
 98102  1  0  0  0  0
 98103  1  0  0  0  0
 98104  1  0  0  0  0
M  END
> <NMREDATA_VERSION>
1.1

> <NMREDATA_LEVEL>
0

> <NMREDATA_SOLVENT>
CD2Cl2

> <NMREDATA_TEMPERATURE>
298

> <NMREDATA_FORMULA>
C52H12F46P5Rh

> <NMREDATA_SMILES>
F[P](F)(F)(F)(F)F.Fc1c(F)c(F)c(c(c1P1(CCP([Rh]21P(CCP2(c1c(F)c(F)c(c(c1F)F)F)c1c(F)c(F)c(c(c1F)F)F)(c1c(F)c(F)c(c(c1F)F)F)c1c(F)c(F)c(c(c1F)F)F)(c1c(F)c(F)c(c(c1F)F)F)c1c(F)c(F)c(c(c1F)F)F)c1c(F)c(F)c(c(c1F)F)F)F)F

> <NMREDATA_ASSIGNMENT>
Rh57, -671.00, 57

> <NMREDATA_1D_103Rh>
-671.00, L=Rh57

$$$$

  ACD/LABS03132411182D

 83 94  0  0  0  0  0  0  0  0  2 V2000
   14.9756  -22.0371    0.0000 C    0  0  0  0  0  0  0  0  0  0  0  0
   13.6149  -21.9962    0.0000 C    0  0  0  0  0  0  0  0  0  0  0  0
   15.6839  -20.8837    0.0000 C    0  0  0  0  0  0  0  0  0  0  0  0
   12.9623  -20.8014    0.0000 C    0  0  0  0  0  0  0  0  0  0  0  0
   15.0313  -19.6889    0.0000 C    0  0  0  0  0  0  0  0  0  0  0  0
   13.6702  -19.6478    0.0000 C    0  0  0  0  0  0  0  0  0  0  0  0
    7.5292  -22.0378    0.0000 C    0  0  0  0  0  0  0  0  0  0  0  0
    7.6840  -23.3859    0.0000 C    0  0  0  0  0  0  0  0  0  0  0  0
    8.6198  -21.2204    0.0000 C    0  0  0  0  0  0  0  0  0  0  0  0
    8.9334  -23.9288    0.0000 C    0  0  0  0  0  0  0  0  0  0  0  0
    9.8691  -21.7632    0.0000 C    0  0  0  0  0  0  0  0  0  0  0  0
   10.0318  -23.1159    0.0000 C    0  0  0  0  0  0  0  0  0  0  0  0
    9.2608  -16.4415    0.0000 C    0  0  0  0  0  0  0  0  0  0  0  0
    8.1968  -15.5965    0.0000 C    0  0  0  0  0  0  0  0  0  0  0  0
   10.5329  -15.9278    0.0000 C    0  0  0  0  0  0  0  0  0  0  0  0
    8.3876  -14.2490    0.0000 C    0  0  0  0  0  0  0  0  0  0  0  0
   10.7236  -14.5803    0.0000 C    0  0  0  0  0  0  0  0  0  0  0  0
    9.6548  -13.7429    0.0000 C    0  0  0  0  0  0  0  0  0  0  0  0
    8.8927  -17.9692    0.0000 C    0  0  0  0  0  0  0  0  0  0  0  0
    8.5208  -19.2859    0.0000 C    0  0  0  0  0  0  0  0  0  0  0  0
    7.9463  -16.9931    0.0000 C    0  0  0  0  0  0  0  0  0  0  0  0
    7.1991  -19.6135    0.0000 C    0  0  0  0  0  0  0  0  0  0  0  0
    6.6246  -17.3207    0.0000 C    0  0  0  0  0  0  0  0  0  0  0  0
    6.2525  -18.6368    0.0000 C    0  0  0  0  0  0  0  0  0  0  0  0
   11.5968  -16.7728    0.0000 P    0  0  0  0  0  0  0  0  0  0  0  0
   12.8529  -16.2498    0.0000 C    0  0  0  0  0  0  0  0  0  0  0  0
   13.7384  -17.2959    0.0000 C    0  0  0  0  0  0  0  0  0  0  0  0
   13.0179  -18.4532    0.0000 P    0  0  0  0  0  0  0  0  0  0  0  0
   12.5005  -25.1074    0.0000 C    0  0  0  0  0  0  0  0  0  0  0  0
   13.5119  -24.1914    0.0000 C    0  0  0  0  0  0  0  0  0  0  0  0
   11.2067  -24.6960    0.0000 C    0  0  0  0  0  0  0  0  0  0  0  0
   13.2215  -22.8598    0.0000 C    0  0  0  0  0  0  0  0  0  0  0  0
   10.9163  -23.3643    0.0000 C    0  0  0  0  0  0  0  0  0  0  0  0
   11.9198  -22.4437    0.0000 C    0  0  0  0  0  0  0  0  0  0  0  0
   15.8898  -16.3671    0.0000 C    0  0  0  0  0  0  0  0  0  0  0  0
   17.0012  -17.1663    0.0000 C    0  0  0  0  0  0  0  0  0  0  0  0
   14.6478  -16.9192    0.0000 C    0  0  0  0  0  0  0  0  0  0  0  0
   16.8591  -18.5209    0.0000 C    0  0  0  0  0  0  0  0  0  0  0  0
   14.5058  -18.2739    0.0000 C    0  0  0  0  0  0  0  0  0  0  0  0
   15.6126  -19.0809    0.0000 C    0  0  0  0  0  0  0  0  0  0  0  0
    5.7166  -15.4960    0.0000 C    0  0  0  0  0  0  0  0  0  0  0  0
    4.4494  -14.9847    0.0000 C    0  0  0  0  0  0  0  0  0  0  0  0
    5.9046  -16.8418    0.0000 C    0  0  0  0  0  0  0  0  0  0  0  0
    3.3730  -15.8313    0.0000 C    0  0  0  0  0  0  0  0  0  0  0  0
    4.8407  -17.6856    0.0000 C    0  0  0  0  0  0  0  0  0  0  0  0
    3.5687  -17.1820    0.0000 C    0  0  0  0  0  0  0  0  0  0  0  0
   12.0131  -15.3248    0.0000 C    0  0  0  0  0  0  0  0  0  0  0  0
   13.3793  -15.4107    0.0000 C    0  0  0  0  0  0  0  0  0  0  0  0
   11.4150  -14.1091    0.0000 C    0  0  0  0  0  0  0  0  0  0  0  0
   14.1268  -14.2800    0.0000 C    0  0  0  0  0  0  0  0  0  0  0  0
   12.1751  -12.9747    0.0000 C    0  0  0  0  0  0  0  0  0  0  0  0
   13.5206  -13.0591    0.0000 C    0  0  0  0  0  0  0  0  0  0  0  0
   10.3709  -17.8058    0.0000 P    0  0  0  0  0  0  0  0  0  0  0  0
    9.6597  -18.9470    0.0000 C    0  0  0  0  0  0  0  0  0  0  0  0
   10.5373  -19.9886    0.0000 C    0  0  0  0  0  0  0  0  0  0  0  0
   11.7965  -19.4783    0.0000 P    0  0  0  0  0  0  0  0  0  0  0  0
   11.6943  -18.1297    0.0000 Rh   0  0  0  0  0  0  0  0  0  0  0  0
   24.2776  -21.0400    0.0000 N    0  0  0  0  0  0  0  0  0  0  0  0
   25.3536  -21.8217    0.0000 C    0  0  0  0  0  0  0  0  0  0  0  0
   23.2016  -21.8217    0.0000 N    0  0  0  0  0  0  0  0  0  0  0  0
   24.9426  -23.0866    0.0000 C    0  0  0  0  0  0  0  0  0  0  0  0
   23.6126  -23.0866    0.0000 C    0  0  0  0  0  0  0  0  0  0  0  0
   22.8309  -24.1626    0.0000 C    0  0  0  0  0  0  0  0  0  0  0  0
   26.6185  -21.4107    0.0000 C    0  0  0  0  0  0  0  0  0  0  0  0
   25.7244  -24.1626    0.0000 Cl   0  0  0  0  0  0  0  0  0  0  0  0
   24.2776  -19.7100    0.0000 B    0  5  0  0  0  0  0  0  0  0  0  0
   25.6076  -19.7100    0.0000 N    0  0  0  0  0  0  0  0  0  0  0  0
   26.3894  -18.6340    0.0000 C    0  0  0  0  0  0  0  0  0  0  0  0
   26.3894  -20.7860    0.0000 N    0  0  0  0  0  0  0  0  0  0  0  0
   27.6543  -19.0450    0.0000 C    0  0  0  0  0  0  0  0  0  0  0  0
   27.6543  -20.3750    0.0000 C    0  0  0  0  0  0  0  0  0  0  0  0
   28.7303  -21.1567    0.0000 C    0  0  0  0  0  0  0  0  0  0  0  0
   28.7303  -18.2632    0.0000 Cl   0  0  0  0  0  0  0  0  0  0  0  0
   22.9476  -19.7100    0.0000 N    0  0  0  0  0  0  0  0  0  0  0  0
   22.1659  -20.7860    0.0000 C    0  0  0  0  0  0  0  0  0  0  0  0
   22.1659  -18.6340    0.0000 N    0  0  0  0  0  0  0  0  0  0  0  0
   20.9010  -20.3750    0.0000 C    0  0  0  0  0  0  0  0  0  0  0  0
   20.9010  -19.0450    0.0000 C    0  0  0  0  0  0  0  0  0  0  0  0
   22.5769  -22.0509    0.0000 C    0  0  0  0  0  0  0  0  0  0  0  0
   19.8250  -21.1567    0.0000 Cl   0  0  0  0  0  0  0  0  0  0  0  0
   24.2776  -18.3800    0.0000 H    0  0  0  0  0  0  0  0  0  0  0  0
   19.8250  -18.2632    0.0000 C    0  0  0  0  0  0  0  0  0  0  0  0
   25.9784  -17.3691    0.0000 C    0  0  0  0  0  0  0  0  0  0  0  0
  1  2  1  0  0  0  0
  1  3  2  0  0  0  0
  2  4  2  0  0  0  0
  3  5  1  0  0  0  0
  4  6  1  0  0  0  0
  5  6  2  0  0  0  0
  7  8  1  0  0  0  0
  7  9  2  0  0  0  0
  8 10  2  0  0  0  0
  9 11  1  0  0  0  0
 10 12  1  0  0  0  0
 11 12  2  0  0  0  0
 13 14  1  0  0  0  0
 13 15  2  0  0  0  0
 14 16  2  0  0  0  0
 15 17  1  0  0  0  0
 16 18  1  0  0  0  0
 17 18  2  0  0  0  0
 19 20  1  0  0  0  0
 19 21  2  0  0  0  0
 20 22  2  0  0  0  0
 21 23  1  0  0  0  0
 22 24  1  0  0  0  0
 23 24  2  0  0  0  0
 25 26  1  0  0  0  0
 26 27  1  0  0  0  0
 27 28  1  0  0  0  0
 19 25  1  0  0  0  0
 15 25  1  0  0  0  0
 11 28  1  0  0  0  0
  6 28  1  0  0  0  0
 29 30  1  0  0  0  0
 29 31  2  0  0  0  0
 30 32  2  0  0  0  0
 31 33  1  0  0  0  0
 32 34  1  0  0  0  0
 33 34  2  0  0  0  0
 35 36  1  0  0  0  0
 35 37  2  0  0  0  0
 36 38  2  0  0  0  0
 37 39  1  0  0  0  0
 38 40  1  0  0  0  0
 39 40  2  0  0  0  0
 41 42  1  0  0  0  0
 41 43  2  0  0  0  0
 42 44  2  0  0  0  0
 43 45  1  0  0  0  0
 44 46  1  0  0  0  0
 45 46  2  0  0  0  0
 47 48  1  0  0  0  0
 47 49  2  0  0  0  0
 48 50  2  0  0  0  0
 49 51  1  0  0  0  0
 50 52  1  0  0  0  0
 51 52  2  0  0  0  0
 53 54  1  0  0  0  0
 54 55  1  0  0  0  0
 55 56  1  0  0  0  0
 47 53  1  0  0  0  0
 43 53  1  0  0  0  0
 39 56  1  0  0  0  0
 34 56  1  0  0  0  0
 53 57  1  0  0  0  0
 25 57  1  0  0  0  0
 28 57  1  0  0  0  0
 56 57  1  0  0  0  0
 58 59  1  0  0  0  0
 58 60  1  0  0  0  0
 59 61  2  0  0  0  0
 60 62  2  0  0  0  0
 61 62  1  0  0  0  0
 62 63  1  0  0  0  0
 59 64  1  0  0  0  0
 61 65  1  0  0  0  0
 67 68  1  0  0  0  0
 67 69  1  0  0  0  0
 68 70  2  0  0  0  0
 69 71  2  0  0  0  0
 70 71  1  0  0  0  0
 66 67  1  0  0  0  0
 71 72  1  0  0  0  0
 70 73  1  0  0  0  0
 74 75  1  0  0  0  0
 74 76  1  0  0  0  0
 75 77  2  0  0  0  0
 76 78  2  0  0  0  0
 77 78  1  0  0  0  0
 75 79  1  0  0  0  0
 77 80  1  0  0  0  0
 74 66  1  0  0  0  0
 58 66  1  0  0  0  0
 66 81  1  0  0  0  0
 78 82  1  0  0  0  0
 68 83  1  0  0  0  0
M  END
> <NMREDATA_VERSION>
1.1

> <NMREDATA_LEVEL>
0

> <NMREDATA_SOLVENT>
CD2Cl2

> <NMREDATA_TEMPERATURE>
298

> <NMREDATA_FORMULA>
C67H71BCl3N6P4Rh

> <NMREDATA_SMILES>
c1ccc(cc1)P1(CCP([Rh]21P(CCP2(c1ccccc1)c1ccccc1)(c1ccccc1)c1ccccc1)(c1ccccc1)c1ccccc1)c1ccccc1.Cc1nn(c(c1Cl)C)[BH](n1nc(c(c1C)Cl)C)n1nc(c(c1C)Cl)C

> <NMREDATA_ASSIGNMENT>
Rh57, 1225.00, 57

> <NMREDATA_1D_103Rh>
1225.00, L=Rh57

$$$$

  ACD/LABS03132411232D

 52 54  0  0  0  0  0  0  0  0  2 V2000
   16.2732  -14.0659    0.0000 Rh   0  3  0  0  0  0  0  0  0  0  0  0
   12.6218  -11.4765    0.0000 C    0  0  0  0  0  0  0  0  0  0  0  0
   12.3939  -10.1659    0.0000 C    0  0  0  0  0  0  0  0  0  0  0  0
   13.8709  -11.9412    0.0000 C    0  0  0  0  0  0  0  0  0  0  0  0
   13.4276   -9.3173    0.0000 C    0  0  0  0  0  0  0  0  0  0  0  0
   14.8920  -11.0954    0.0000 C    0  0  0  0  0  0  0  0  0  0  0  0
   14.6688   -9.7775    0.0000 C    0  0  0  0  0  0  0  0  0  0  0  0
   14.6516  -15.4367    0.0000 C    0  0  0  0  0  0  0  0  0  0  0  0
   14.4099  -16.7426    0.0000 C    0  0  0  0  0  0  0  0  0  0  0  0
   13.6291  -14.5795    0.0000 C    0  0  0  0  0  0  0  0  0  0  0  0
   13.1613  -17.2007    0.0000 C    0  0  0  0  0  0  0  0  0  0  0  0
   12.3770  -15.0256    0.0000 C    0  0  0  0  0  0  0  0  0  0  0  0
   12.1432  -16.3360    0.0000 C    0  0  0  0  0  0  0  0  0  0  0  0
   15.1906  -13.2774    0.0000 P    0  0  0  0  0  0  0  0  0  0  0  0
   13.8625  -13.2689    0.0000 C    0  0  0  0  0  0  0  0  0  0  0  0
   12.5347  -13.2609    0.0000 P    0  0  0  0  0  0  0  0  0  0  0  0
   11.6775  -14.2834    0.0000 O    0  0  0  0  0  0  0  0  0  0  0  0
   14.7854  -12.0079    0.0000 O    0  0  0  0  0  0  0  0  0  0  0  0
   16.2712  -12.5069    0.0000 O    0  0  0  0  0  0  0  0  0  0  0  0
   14.7810  -14.5373    0.0000 O    0  0  0  0  0  0  0  0  0  0  0  0
   11.8802  -12.1039    0.0000 O    0  0  0  0  0  0  0  0  0  0  0  0
   11.2064  -13.2527    0.0000 O    0  0  0  0  0  0  0  0  0  0  0  0
   16.1435  -11.1827    0.0000 C    0  0  0  0  0  0  0  0  0  0  0  0
   15.6643  -15.5291    0.0000 C    0  0  0  0  0  0  0  0  0  0  0  0
   10.5487  -12.0833    0.0000 C    0  0  0  0  0  0  0  0  0  0  0  0
   10.5330  -14.4018    0.0000 C    0  0  0  0  0  0  0  0  0  0  0  0
   22.2425  -14.8064    0.0000 C    0  0  0  0  0  0  0  0  0  0  0  0
   23.1337  -13.8135    0.0000 C    0  0  0  0  0  0  0  0  0  0  0  0
   20.9390  -14.5251    0.0000 C    0  0  0  0  0  0  0  0  0  0  0  0
   22.7165  -12.5476    0.0000 C    0  0  0  0  0  0  0  0  0  0  0  0
   20.5294  -13.2635    0.0000 C    0  0  0  0  0  0  0  0  0  0  0  0
   21.4203  -12.2710    0.0000 C    0  0  0  0  0  0  0  0  0  0  0  0
   20.7641  -17.7048    0.0000 C    0  0  0  0  0  0  0  0  0  0  0  0
   21.7568  -18.5953    0.0000 C    0  0  0  0  0  0  0  0  0  0  0  0
   21.0404  -16.4089    0.0000 C    0  0  0  0  0  0  0  0  0  0  0  0
   23.0188  -18.1859    0.0000 C    0  0  0  0  0  0  0  0  0  0  0  0
   22.3024  -15.9995    0.0000 C    0  0  0  0  0  0  0  0  0  0  0  0
   23.2949  -16.8904    0.0000 C    0  0  0  0  0  0  0  0  0  0  0  0
   17.5867  -13.9741    0.0000 P    0  0  0  0  0  0  0  0  0  0  0  0
   20.0479  -15.5180    0.0000 C    0  0  0  0  0  0  0  0  0  0  0  0
   19.1616  -16.5027    0.0000 P    0  0  0  0  0  0  0  0  0  0  0  0
   18.5280  -15.3267    0.0000 O    0  0  0  0  0  0  0  0  0  0  0  0
   17.0960  -12.7472    0.0000 O    0  0  0  0  0  0  0  0  0  0  0  0
   18.6127  -13.1206    0.0000 O    0  0  0  0  0  0  0  0  0  0  0  0
   17.2674  -15.2551    0.0000 O    0  0  0  0  0  0  0  0  0  0  0  0
   19.7874  -17.6737    0.0000 O    0  0  0  0  0  0  0  0  0  0  0  0
   17.9902  -17.1283    0.0000 O    0  0  0  0  0  0  0  0  0  0  0  0
   18.3856  -11.8104    0.0000 C    0  0  0  0  0  0  0  0  0  0  0  0
   18.2258  -16.1878    0.0000 C    0  0  0  0  0  0  0  0  0  0  0  0
   19.0833  -18.8050    0.0000 C    0  0  0  0  0  0  0  0  0  0  0  0
   17.9426  -18.4538    0.0000 C    0  0  0  0  0  0  0  0  0  0  0  0
   28.6351  -14.2615    0.0000 Cl   0  5  0  0  0  0  0  0  0  0  0  0
  2  3  1  0  0  0  0
  2  4  2  0  0  0  0
  3  5  2  0  0  0  0
  4  6  1  0  0  0  0
  5  7  1  0  0  0  0
  6  7  2  0  0  0  0
  8  9  1  0  0  0  0
  8 10  2  0  0  0  0
  9 11  2  0  0  0  0
 10 12  1  0  0  0  0
 11 13  1  0  0  0  0
 12 13  2  0  0  0  0
 14 15  1  0  0  0  0
 15 16  1  0  0  0  0
 16 17  2  0  0  0  0
 14 18  2  0  0  0  0
 14 19  1  0  0  0  0
 14 20  1  0  0  0  0
 16 21  1  0  0  0  0
 16 22  1  0  0  0  0
 10 15  1  0  0  0  0
  4 15  1  0  0  0  0
 19 23  1  0  0  0  0
 20 24  1  0  0  0  0
 21 25  1  0  0  0  0
 22 26  1  0  0  0  0
  1 14  1  0  0  0  0
 27 28  1  0  0  0  0
 27 29  2  0  0  0  0
 28 30  2  0  0  0  0
 29 31  1  0  0  0  0
 30 32  1  0  0  0  0
 31 32  2  0  0  0  0
 33 34  1  0  0  0  0
 33 35  2  0  0  0  0
 34 36  2  0  0  0  0
 35 37  1  0  0  0  0
 36 38  1  0  0  0  0
 37 38  2  0  0  0  0
 39 40  1  0  0  0  0
 40 41  1  0  0  0  0
 41 42  2  0  0  0  0
 39 43  2  0  0  0  0
 39 44  1  0  0  0  0
 39 45  1  0  0  0  0
 41 46  1  0  0  0  0
 41 47  1  0  0  0  0
 35 40  1  0  0  0  0
 29 40  1  0  0  0  0
 44 48  1  0  0  0  0
 45 49  1  0  0  0  0
 46 50  1  0  0  0  0
 47 51  1  0  0  0  0
  1 39  1  0  0  0  0
M  END
> <NMREDATA_VERSION>
1.1

> <NMREDATA_LEVEL>
0

> <NMREDATA_SOLVENT>
CD2Cl2

> <NMREDATA_FORMULA>
C34H45ClO12P4Rh

> <NMREDATA_SMILES>
CO[P](=O)(C(P(=O)(OC)OC)(c1ccccc1)c1ccccc1)([Rh][P](=O)(C(P(=O)(OC)OC)(c1ccccc1)c1ccccc1)(OC)OC)OC.Cl

> <NMREDATA_ASSIGNMENT>
Rh1, -731.00, 1

> <NMREDATA_1D_103Rh>
-731.00, L=Rh1

$$$$

  ACD/LABS03132411252D

 61 69  0  0  0  0  0  0  0  0  2 V2000
   20.6039  -14.8659    0.0000 C    0  0  0  0  0  0  0  0  0  0  0  0
   20.6043  -16.1965    0.0000 C    0  0  0  0  0  0  0  0  0  0  0  0
   19.4515  -14.1999    0.0000 C    0  0  0  0  0  0  0  0  0  0  0  0
   19.4522  -16.8617    0.0000 C    0  0  0  0  0  0  0  0  0  0  0  0
   18.2994  -14.8650    0.0000 C    0  0  0  0  0  0  0  0  0  0  0  0
   18.3000  -16.1960    0.0000 C    0  0  0  0  0  0  0  0  0  0  0  0
   19.8090  -19.1644    0.0000 C    0  0  0  0  0  0  0  0  0  0  0  0
   19.1441  -18.0127    0.0000 C    0  0  0  0  0  0  0  0  0  0  0  0
   19.1432  -20.3172    0.0000 C    0  0  0  0  0  0  0  0  0  0  0  0
   17.8129  -18.0130    0.0000 C    0  0  0  0  0  0  0  0  0  0  0  0
   17.8200  -20.3128    0.0000 C    0  0  0  0  0  0  0  0  0  0  0  0
   17.1550  -19.1611    0.0000 C    0  0  0  0  0  0  0  0  0  0  0  0
   15.9962  -17.5262    0.0000 C    0  0  0  0  0  0  0  0  0  0  0  0
   15.9962  -18.8570    0.0000 C    0  0  0  0  0  0  0  0  0  0  0  0
   14.8434  -16.8603    0.0000 C    0  0  0  0  0  0  0  0  0  0  0  0
   14.8525  -19.5173    0.0000 C    0  0  0  0  0  0  0  0  0  0  0  0
   13.6997  -17.5207    0.0000 C    0  0  0  0  0  0  0  0  0  0  0  0
   13.7003  -18.8517    0.0000 C    0  0  0  0  0  0  0  0  0  0  0  0
   17.1479  -16.8612    0.0000 P    0  0  0  0  0  0  0  0  0  0  0  0
    8.6173  -22.2676    0.0000 C    0  0  0  0  0  0  0  0  0  0  0  0
    9.8642  -22.7251    0.0000 C    0  0  0  0  0  0  0  0  0  0  0  0
    8.3833  -20.9585    0.0000 C    0  0  0  0  0  0  0  0  0  0  0  0
   10.8854  -21.8692    0.0000 C    0  0  0  0  0  0  0  0  0  0  0  0
    9.4049  -20.1024    0.0000 C    0  0  0  0  0  0  0  0  0  0  0  0
   10.6520  -20.5603    0.0000 C    0  0  0  0  0  0  0  0  0  0  0  0
   14.6907  -21.5255    0.0000 C    0  0  0  0  0  0  0  0  0  0  0  0
   13.8352  -20.5041    0.0000 C    0  0  0  0  0  0  0  0  0  0  0  0
   14.2334  -22.7728    0.0000 C    0  0  0  0  0  0  0  0  0  0  0  0
   12.5291  -20.7256    0.0000 C    0  0  0  0  0  0  0  0  0  0  0  0
   12.9200  -22.9985    0.0000 C    0  0  0  0  0  0  0  0  0  0  0  0
   12.0762  -21.9805    0.0000 C    0  0  0  0  0  0  0  0  0  0  0  0
   10.8221  -18.6906    0.0000 C    0  0  0  0  0  0  0  0  0  0  0  0
   11.2794  -17.4434    0.0000 C    0  0  0  0  0  0  0  0  0  0  0  0
    9.5084  -18.9166    0.0000 C    0  0  0  0  0  0  0  0  0  0  0  0
   10.4282  -16.4302    0.0000 C    0  0  0  0  0  0  0  0  0  0  0  0
    8.6616  -17.9110    0.0000 C    0  0  0  0  0  0  0  0  0  0  0  0
    9.1148  -16.6559    0.0000 C    0  0  0  0  0  0  0  0  0  0  0  0
   11.6776  -19.7121    0.0000 P    0  0  0  0  0  0  0  0  0  0  0  0
   10.8813   -9.3588    0.0000 C    0  0  0  0  0  0  0  0  0  0  0  0
   12.1826   -9.1298    0.0000 C    0  0  0  0  0  0  0  0  0  0  0  0
   10.4240  -10.6061    0.0000 C    0  0  0  0  0  0  0  0  0  0  0  0
   13.0387  -10.1514    0.0000 C    0  0  0  0  0  0  0  0  0  0  0  0
   11.2719  -11.6319    0.0000 C    0  0  0  0  0  0  0  0  0  0  0  0
   12.5812  -11.3983    0.0000 C    0  0  0  0  0  0  0  0  0  0  0  0
   10.1550  -13.6695    0.0000 C    0  0  0  0  0  0  0  0  0  0  0  0
   11.1766  -12.8135    0.0000 C    0  0  0  0  0  0  0  0  0  0  0  0
   10.3843  -14.9706    0.0000 C    0  0  0  0  0  0  0  0  0  0  0  0
   12.4155  -13.2756    0.0000 C    0  0  0  0  0  0  0  0  0  0  0  0
   11.6312  -15.4281    0.0000 C    0  0  0  0  0  0  0  0  0  0  0  0
   12.6491  -14.5849    0.0000 C    0  0  0  0  0  0  0  0  0  0  0  0
   14.4583  -11.5636    0.0000 C    0  0  0  0  0  0  0  0  0  0  0  0
   14.2249  -10.2547    0.0000 C    0  0  0  0  0  0  0  0  0  0  0  0
   15.7054  -12.0215    0.0000 C    0  0  0  0  0  0  0  0  0  0  0  0
   15.2505   -9.4065    0.0000 C    0  0  0  0  0  0  0  0  0  0  0  0
   16.7314  -11.1731    0.0000 C    0  0  0  0  0  0  0  0  0  0  0  0
   16.4980   -9.8641    0.0000 C    0  0  0  0  0  0  0  0  0  0  0  0
   16.3042  -15.8426    0.0000 Rh   0  0  0  0  0  0  0  0  0  0  0  0
   17.3178  -14.9912    0.0000 N    0  0  0  0  0  0  0  0  0  0  0  0
   17.0921  -13.6778    0.0000 N    0  3  0  0  0  0  0  0  0  0  0  0
   16.8710  -12.3725    0.0000 N    0  5  0  0  0  0  0  0  0  0  0  0
   13.4371  -12.4195    0.0000 P    0  0  0  0  0  0  0  0  0  0  0  0
  1  2  1  0  0  0  0
  1  3  2  0  0  0  0
  2  4  2  0  0  0  0
  3  5  1  0  0  0  0
  4  6  1  0  0  0  0
  5  6  2  0  0  0  0
  7  8  1  0  0  0  0
  7  9  2  0  0  0  0
  8 10  2  0  0  0  0
  9 11  1  0  0  0  0
 10 12  1  0  0  0  0
 11 12  2  0  0  0  0
 13 14  1  0  0  0  0
 13 15  2  0  0  0  0
 14 16  2  0  0  0  0
 15 17  1  0  0  0  0
 16 18  1  0  0  0  0
 17 18  2  0  0  0  0
 13 19  1  0  0  0  0
 10 19  1  0  0  0  0
  6 19  1  0  0  0  0
 20 21  1  0  0  0  0
 20 22  2  0  0  0  0
 21 23  2  0  0  0  0
 22 24  1  0  0  0  0
 23 25  1  0  0  0  0
 24 25  2  0  0  0  0
 26 27  1  0  0  0  0
 26 28  2  0  0  0  0
 27 29  2  0  0  0  0
 28 30  1  0  0  0  0
 29 31  1  0  0  0  0
 30 31  2  0  0  0  0
 32 33  1  0  0  0  0
 32 34  2  0  0  0  0
 33 35  2  0  0  0  0
 34 36  1  0  0  0  0
 35 37  1  0  0  0  0
 36 37  2  0  0  0  0
 32 38  1  0  0  0  0
 29 38  1  0  0  0  0
 25 38  1  0  0  0  0
 39 40  1  0  0  0  0
 39 41  2  0  0  0  0
 40 42  2  0  0  0  0
 41 43  1  0  0  0  0
 42 44  1  0  0  0  0
 43 44  2  0  0  0  0
 45 46  1  0  0  0  0
 45 47  2  0  0  0  0
 46 48  2  0  0  0  0
 47 49  1  0  0  0  0
 48 50  1  0  0  0  0
 49 50  2  0  0  0  0
 51 52  1  0  0  0  0
 51 53  2  0  0  0  0
 52 54  2  0  0  0  0
 53 55  1  0  0  0  0
 54 56  1  0  0  0  0
 55 56  2  0  0  0  0
 58 59  2  0  0  0  0
 59 60  2  0  0  0  0
 57 58  1  0  0  0  0
 57 61  1  0  0  0  0
 51 61  1  0  0  0  0
 48 61  1  0  0  0  0
 44 61  1  0  0  0  0
 38 57  1  0  0  0  0
 19 57  1  0  0  0  0
M  END
> <NMREDATA_VERSION>
1.1

> <NMREDATA_LEVEL>
0

> <NMREDATA_SOLVENT>
DCCl3

> <NMREDATA_TEMPERATURE>
300

> <NMREDATA_FORMULA>
C54H50N3P3Rh

> <NMREDATA_SMILES>
N=N=N[Rh](P(c1ccccc1)(c1ccccc1)c1ccccc1)(P(c1ccccc1)(c1ccccc1)c1ccccc1)P(c1ccccc1)(c1ccccc1)c1ccccc1

> <NMREDATA_ASSIGNMENT>
Rh57, -70.00, 57

> <NMREDATA_1D_103Rh>
-70.00, L=Rh57

$$$$

  ACD/LABS03132411252D

 61 69  0  0  0  0  0  0  0  0  2 V2000
   20.6039  -14.8659    0.0000 C    0  0  0  0  0  0  0  0  0  0  0  0
   20.6043  -16.1965    0.0000 C    0  0  0  0  0  0  0  0  0  0  0  0
   19.4515  -14.1999    0.0000 C    0  0  0  0  0  0  0  0  0  0  0  0
   19.4522  -16.8617    0.0000 C    0  0  0  0  0  0  0  0  0  0  0  0
   18.2994  -14.8650    0.0000 C    0  0  0  0  0  0  0  0  0  0  0  0
   18.3000  -16.1960    0.0000 C    0  0  0  0  0  0  0  0  0  0  0  0
   19.8090  -19.1644    0.0000 C    0  0  0  0  0  0  0  0  0  0  0  0
   19.1441  -18.0127    0.0000 C    0  0  0  0  0  0  0  0  0  0  0  0
   19.1432  -20.3172    0.0000 C    0  0  0  0  0  0  0  0  0  0  0  0
   17.8129  -18.0130    0.0000 C    0  0  0  0  0  0  0  0  0  0  0  0
   17.8200  -20.3128    0.0000 C    0  0  0  0  0  0  0  0  0  0  0  0
   17.1550  -19.1611    0.0000 C    0  0  0  0  0  0  0  0  0  0  0  0
   15.9962  -17.5262    0.0000 C    0  0  0  0  0  0  0  0  0  0  0  0
   15.9962  -18.8570    0.0000 C    0  0  0  0  0  0  0  0  0  0  0  0
   14.8434  -16.8603    0.0000 C    0  0  0  0  0  0  0  0  0  0  0  0
   14.8525  -19.5173    0.0000 C    0  0  0  0  0  0  0  0  0  0  0  0
   13.6997  -17.5207    0.0000 C    0  0  0  0  0  0  0  0  0  0  0  0
   13.7003  -18.8517    0.0000 C    0  0  0  0  0  0  0  0  0  0  0  0
   17.1479  -16.8612    0.0000 P    0  0  0  0  0  0  0  0  0  0  0  0
    8.6173  -22.2676    0.0000 C    0  0  0  0  0  0  0  0  0  0  0  0
    9.8642  -22.7251    0.0000 C    0  0  0  0  0  0  0  0  0  0  0  0
    8.3833  -20.9585    0.0000 C    0  0  0  0  0  0  0  0  0  0  0  0
   10.8854  -21.8692    0.0000 C    0  0  0  0  0  0  0  0  0  0  0  0
    9.4049  -20.1024    0.0000 C    0  0  0  0  0  0  0  0  0  0  0  0
   10.6520  -20.5603    0.0000 C    0  0  0  0  0  0  0  0  0  0  0  0
   14.6907  -21.5255    0.0000 C    0  0  0  0  0  0  0  0  0  0  0  0
   13.8352  -20.5041    0.0000 C    0  0  0  0  0  0  0  0  0  0  0  0
   14.2334  -22.7728    0.0000 C    0  0  0  0  0  0  0  0  0  0  0  0
   12.5291  -20.7256    0.0000 C    0  0  0  0  0  0  0  0  0  0  0  0
   12.9200  -22.9985    0.0000 C    0  0  0  0  0  0  0  0  0  0  0  0
   12.0762  -21.9805    0.0000 C    0  0  0  0  0  0  0  0  0  0  0  0
   10.8221  -18.6906    0.0000 C    0  0  0  0  0  0  0  0  0  0  0  0
   11.2794  -17.4434    0.0000 C    0  0  0  0  0  0  0  0  0  0  0  0
    9.5084  -18.9166    0.0000 C    0  0  0  0  0  0  0  0  0  0  0  0
   10.4282  -16.4302    0.0000 C    0  0  0  0  0  0  0  0  0  0  0  0
    8.6616  -17.9110    0.0000 C    0  0  0  0  0  0  0  0  0  0  0  0
    9.1148  -16.6559    0.0000 C    0  0  0  0  0  0  0  0  0  0  0  0
   11.6776  -19.7121    0.0000 P    0  0  0  0  0  0  0  0  0  0  0  0
   10.8813   -9.3588    0.0000 C    0  0  0  0  0  0  0  0  0  0  0  0
   12.1826   -9.1298    0.0000 C    0  0  0  0  0  0  0  0  0  0  0  0
   10.4240  -10.6061    0.0000 C    0  0  0  0  0  0  0  0  0  0  0  0
   13.0387  -10.1514    0.0000 C    0  0  0  0  0  0  0  0  0  0  0  0
   11.2719  -11.6319    0.0000 C    0  0  0  0  0  0  0  0  0  0  0  0
   12.5812  -11.3983    0.0000 C    0  0  0  0  0  0  0  0  0  0  0  0
   10.1550  -13.6695    0.0000 C    0  0  0  0  0  0  0  0  0  0  0  0
   11.1766  -12.8135    0.0000 C    0  0  0  0  0  0  0  0  0  0  0  0
   10.3843  -14.9706    0.0000 C    0  0  0  0  0  0  0  0  0  0  0  0
   12.4155  -13.2756    0.0000 C    0  0  0  0  0  0  0  0  0  0  0  0
   11.6312  -15.4281    0.0000 C    0  0  0  0  0  0  0  0  0  0  0  0
   12.6491  -14.5849    0.0000 C    0  0  0  0  0  0  0  0  0  0  0  0
   14.4583  -11.5636    0.0000 C    0  0  0  0  0  0  0  0  0  0  0  0
   14.2249  -10.2547    0.0000 C    0  0  0  0  0  0  0  0  0  0  0  0
   15.7054  -12.0215    0.0000 C    0  0  0  0  0  0  0  0  0  0  0  0
   15.2505   -9.4065    0.0000 C    0  0  0  0  0  0  0  0  0  0  0  0
   16.7314  -11.1731    0.0000 C    0  0  0  0  0  0  0  0  0  0  0  0
   16.4980   -9.8641    0.0000 C    0  0  0  0  0  0  0  0  0  0  0  0
   16.3042  -15.8426    0.0000 Rh   0  0  0  0  0  0  0  0  0  0  0  0
   17.3178  -14.9912    0.0000 N    0  0  0  0  0  0  0  0  0  0  0  0
   17.0921  -13.6778    0.0000 N    0  3  0  0  0  0  0  0  0  0  0  0
   16.8710  -12.3725    0.0000 N    0  5  0  0  0  0  0  0  0  0  0  0
   13.4371  -12.4195    0.0000 P    0  0  0  0  0  0  0  0  0  0  0  0
  1  2  1  0  0  0  0
  1  3  2  0  0  0  0
  2  4  2  0  0  0  0
  3  5  1  0  0  0  0
  4  6  1  0  0  0  0
  5  6  2  0  0  0  0
  7  8  1  0  0  0  0
  7  9  2  0  0  0  0
  8 10  2  0  0  0  0
  9 11  1  0  0  0  0
 10 12  1  0  0  0  0
 11 12  2  0  0  0  0
 13 14  1  0  0  0  0
 13 15  2  0  0  0  0
 14 16  2  0  0  0  0
 15 17  1  0  0  0  0
 16 18  1  0  0  0  0
 17 18  2  0  0  0  0
 13 19  1  0  0  0  0
 10 19  1  0  0  0  0
  6 19  1  0  0  0  0
 20 21  1  0  0  0  0
 20 22  2  0  0  0  0
 21 23  2  0  0  0  0
 22 24  1  0  0  0  0
 23 25  1  0  0  0  0
 24 25  2  0  0  0  0
 26 27  1  0  0  0  0
 26 28  2  0  0  0  0
 27 29  2  0  0  0  0
 28 30  1  0  0  0  0
 29 31  1  0  0  0  0
 30 31  2  0  0  0  0
 32 33  1  0  0  0  0
 32 34  2  0  0  0  0
 33 35  2  0  0  0  0
 34 36  1  0  0  0  0
 35 37  1  0  0  0  0
 36 37  2  0  0  0  0
 32 38  1  0  0  0  0
 29 38  1  0  0  0  0
 25 38  1  0  0  0  0
 39 40  1  0  0  0  0
 39 41  2  0  0  0  0
 40 42  2  0  0  0  0
 41 43  1  0  0  0  0
 42 44  1  0  0  0  0
 43 44  2  0  0  0  0
 45 46  1  0  0  0  0
 45 47  2  0  0  0  0
 46 48  2  0  0  0  0
 47 49  1  0  0  0  0
 48 50  1  0  0  0  0
 49 50  2  0  0  0  0
 51 52  1  0  0  0  0
 51 53  2  0  0  0  0
 52 54  2  0  0  0  0
 53 55  1  0  0  0  0
 54 56  1  0  0  0  0
 55 56  2  0  0  0  0
 58 59  2  0  0  0  0
 59 60  2  0  0  0  0
 57 58  1  0  0  0  0
 57 61  1  0  0  0  0
 51 61  1  0  0  0  0
 48 61  1  0  0  0  0
 44 61  1  0  0  0  0
 38 57  1  0  0  0  0
 19 57  1  0  0  0  0
M  END
> <NMREDATA_VERSION>
1.1

> <NMREDATA_LEVEL>
0

> <NMREDATA_SOLVENT>
DCCl3

> <NMREDATA_TEMPERATURE>
247

> <NMREDATA_FORMULA>
C54H50N3P3Rh

> <NMREDATA_SMILES>
N=N=N[Rh](P(c1ccccc1)(c1ccccc1)c1ccccc1)(P(c1ccccc1)(c1ccccc1)c1ccccc1)P(c1ccccc1)(c1ccccc1)c1ccccc1

> <NMREDATA_ASSIGNMENT>
Rh57, -92.00, 57

> <NMREDATA_1D_103Rh>
-92.00, L=Rh57

$$$$

  ACD/LABS03132411252D

 61 69  0  0  0  0  0  0  0  0  1 V2000
   20.6039  -14.8659    0.0000 C    0  0  0  0  0  0  0  0  0  0  0  0
   20.6043  -16.1965    0.0000 C    0  0  0  0  0  0  0  0  0  0  0  0
   19.4515  -14.1999    0.0000 C    0  0  0  0  0  0  0  0  0  0  0  0
   19.4522  -16.8617    0.0000 C    0  0  0  0  0  0  0  0  0  0  0  0
   18.2994  -14.8650    0.0000 C    0  0  0  0  0  0  0  0  0  0  0  0
   18.3000  -16.1960    0.0000 C    0  0  0  0  0  0  0  0  0  0  0  0
   19.8090  -19.1644    0.0000 C    0  0  0  0  0  0  0  0  0  0  0  0
   19.1441  -18.0127    0.0000 C    0  0  0  0  0  0  0  0  0  0  0  0
   19.1432  -20.3172    0.0000 C    0  0  0  0  0  0  0  0  0  0  0  0
   17.8129  -18.0130    0.0000 C    0  0  0  0  0  0  0  0  0  0  0  0
   17.8200  -20.3128    0.0000 C    0  0  0  0  0  0  0  0  0  0  0  0
   17.1550  -19.1611    0.0000 C    0  0  0  0  0  0  0  0  0  0  0  0
   15.9962  -17.5262    0.0000 C    0  0  0  0  0  0  0  0  0  0  0  0
   15.9962  -18.8570    0.0000 C    0  0  0  0  0  0  0  0  0  0  0  0
   14.8434  -16.8603    0.0000 C    0  0  0  0  0  0  0  0  0  0  0  0
   14.8525  -19.5173    0.0000 C    0  0  0  0  0  0  0  0  0  0  0  0
   13.6997  -17.5207    0.0000 C    0  0  0  0  0  0  0  0  0  0  0  0
   13.7003  -18.8517    0.0000 C    0  0  0  0  0  0  0  0  0  0  0  0
   17.1479  -16.8612    0.0000 P    0  0  0  0  0  0  0  0  0  0  0  0
    8.6173  -22.2676    0.0000 C    0  0  0  0  0  0  0  0  0  0  0  0
    9.8642  -22.7251    0.0000 C    0  0  0  0  0  0  0  0  0  0  0  0
    8.3833  -20.9585    0.0000 C    0  0  0  0  0  0  0  0  0  0  0  0
   10.8854  -21.8692    0.0000 C    0  0  0  0  0  0  0  0  0  0  0  0
    9.4049  -20.1024    0.0000 C    0  0  0  0  0  0  0  0  0  0  0  0
   10.6520  -20.5603    0.0000 C    0  0  0  0  0  0  0  0  0  0  0  0
   14.6907  -21.5255    0.0000 C    0  0  0  0  0  0  0  0  0  0  0  0
   13.8352  -20.5041    0.0000 C    0  0  0  0  0  0  0  0  0  0  0  0
   14.2334  -22.7728    0.0000 C    0  0  0  0  0  0  0  0  0  0  0  0
   12.5291  -20.7256    0.0000 C    0  0  0  0  0  0  0  0  0  0  0  0
   12.9200  -22.9985    0.0000 C    0  0  0  0  0  0  0  0  0  0  0  0
   12.0762  -21.9805    0.0000 C    0  0  0  0  0  0  0  0  0  0  0  0
   10.8221  -18.6906    0.0000 C    0  0  0  0  0  0  0  0  0  0  0  0
   11.2794  -17.4434    0.0000 C    0  0  0  0  0  0  0  0  0  0  0  0
    9.5084  -18.9166    0.0000 C    0  0  0  0  0  0  0  0  0  0  0  0
   10.4282  -16.4302    0.0000 C    0  0  0  0  0  0  0  0  0  0  0  0
    8.6616  -17.9110    0.0000 C    0  0  0  0  0  0  0  0  0  0  0  0
    9.1148  -16.6559    0.0000 C    0  0  0  0  0  0  0  0  0  0  0  0
   11.6776  -19.7121    0.0000 P    0  0  0  0  0  0  0  0  0  0  0  0
   10.8813   -9.3588    0.0000 C    0  0  0  0  0  0  0  0  0  0  0  0
   12.1826   -9.1298    0.0000 C    0  0  0  0  0  0  0  0  0  0  0  0
   10.4240  -10.6061    0.0000 C    0  0  0  0  0  0  0  0  0  0  0  0
   13.0387  -10.1514    0.0000 C    0  0  0  0  0  0  0  0  0  0  0  0
   11.2719  -11.6319    0.0000 C    0  0  0  0  0  0  0  0  0  0  0  0
   12.5812  -11.3983    0.0000 C    0  0  0  0  0  0  0  0  0  0  0  0
   10.1550  -13.6695    0.0000 C    0  0  0  0  0  0  0  0  0  0  0  0
   11.1766  -12.8135    0.0000 C    0  0  0  0  0  0  0  0  0  0  0  0
   10.3843  -14.9706    0.0000 C    0  0  0  0  0  0  0  0  0  0  0  0
   12.4155  -13.2756    0.0000 C    0  0  0  0  0  0  0  0  0  0  0  0
   11.6312  -15.4281    0.0000 C    0  0  0  0  0  0  0  0  0  0  0  0
   12.6491  -14.5849    0.0000 C    0  0  0  0  0  0  0  0  0  0  0  0
   14.4583  -11.5636    0.0000 C    0  0  0  0  0  0  0  0  0  0  0  0
   14.2249  -10.2547    0.0000 C    0  0  0  0  0  0  0  0  0  0  0  0
   15.7054  -12.0215    0.0000 C    0  0  0  0  0  0  0  0  0  0  0  0
   15.2505   -9.4065    0.0000 C    0  0  0  0  0  0  0  0  0  0  0  0
   16.7314  -11.1731    0.0000 C    0  0  0  0  0  0  0  0  0  0  0  0
   16.4980   -9.8641    0.0000 C    0  0  0  0  0  0  0  0  0  0  0  0
   16.3042  -15.8426    0.0000 Rh   0  0  0  0  0  0  0  0  0  0  0  0
   13.4371  -12.4195    0.0000 P    0  0  0  0  0  0  0  0  0  0  0  0
   17.3262  -14.9914    0.0000 N    0  0  0  0  0  0  0  0  0  0  0  0
   17.1000  -13.6808    0.0000 C    0  0  0  0  0  0  0  0  0  0  0  0
   16.8738  -12.3702    0.0000 O    0  0  0  0  0  0  0  0  0  0  0  0
  1  2  1  0  0  0  0
  1  3  2  0  0  0  0
  2  4  2  0  0  0  0
  3  5  1  0  0  0  0
  4  6  1  0  0  0  0
  5  6  2  0  0  0  0
  7  8  1  0  0  0  0
  7  9  2  0  0  0  0
  8 10  2  0  0  0  0
  9 11  1  0  0  0  0
 10 12  1  0  0  0  0
 11 12  2  0  0  0  0
 13 14  1  0  0  0  0
 13 15  2  0  0  0  0
 14 16  2  0  0  0  0
 15 17  1  0  0  0  0
 16 18  1  0  0  0  0
 17 18  2  0  0  0  0
 13 19  1  0  0  0  0
 10 19  1  0  0  0  0
  6 19  1  0  0  0  0
 20 21  1  0  0  0  0
 20 22  2  0  0  0  0
 21 23  2  0  0  0  0
 22 24  1  0  0  0  0
 23 25  1  0  0  0  0
 24 25  2  0  0  0  0
 26 27  1  0  0  0  0
 26 28  2  0  0  0  0
 27 29  2  0  0  0  0
 28 30  1  0  0  0  0
 29 31  1  0  0  0  0
 30 31  2  0  0  0  0
 32 33  1  0  0  0  0
 32 34  2  0  0  0  0
 33 35  2  0  0  0  0
 34 36  1  0  0  0  0
 35 37  1  0  0  0  0
 36 37  2  0  0  0  0
 32 38  1  0  0  0  0
 29 38  1  0  0  0  0
 25 38  1  0  0  0  0
 39 40  1  0  0  0  0
 39 41  2  0  0  0  0
 40 42  2  0  0  0  0
 41 43  1  0  0  0  0
 42 44  1  0  0  0  0
 43 44  2  0  0  0  0
 45 46  1  0  0  0  0
 45 47  2  0  0  0  0
 46 48  2  0  0  0  0
 47 49  1  0  0  0  0
 48 50  1  0  0  0  0
 49 50  2  0  0  0  0
 51 52  1  0  0  0  0
 51 53  2  0  0  0  0
 52 54  2  0  0  0  0
 53 55  1  0  0  0  0
 54 56  1  0  0  0  0
 55 56  2  0  0  0  0
 57 58  1  0  0  0  0
 51 58  1  0  0  0  0
 48 58  1  0  0  0  0
 44 58  1  0  0  0  0
 38 57  1  0  0  0  0
 19 57  1  0  0  0  0
 59 60  2  0  0  0  0
 60 61  2  0  0  0  0
 57 59  1  0  0  0  0
M  END
> <NMREDATA_VERSION>
1.1

> <NMREDATA_LEVEL>
0

> <NMREDATA_SOLVENT>
DCCl3

> <NMREDATA_TEMPERATURE>
300

> <NMREDATA_FORMULA>
C55H48NOP3Rh

> <NMREDATA_SMILES>
O=C=N[Rh](P(c1ccccc1)(c1ccccc1)c1ccccc1)(P(c1ccccc1)(c1ccccc1)c1ccccc1)P(c1ccccc1)(c1ccccc1)c1ccccc1

> <NMREDATA_ASSIGNMENT>
Rh57, -168.00, 57

> <NMREDATA_1D_103Rh>
-168.00, L=Rh57

$$$$

  ACD/LABS03132411252D

 61 69  0  0  0  0  0  0  0  0  1 V2000
   20.6039  -14.8659    0.0000 C    0  0  0  0  0  0  0  0  0  0  0  0
   20.6043  -16.1965    0.0000 C    0  0  0  0  0  0  0  0  0  0  0  0
   19.4515  -14.1999    0.0000 C    0  0  0  0  0  0  0  0  0  0  0  0
   19.4522  -16.8617    0.0000 C    0  0  0  0  0  0  0  0  0  0  0  0
   18.2994  -14.8650    0.0000 C    0  0  0  0  0  0  0  0  0  0  0  0
   18.3000  -16.1960    0.0000 C    0  0  0  0  0  0  0  0  0  0  0  0
   19.8090  -19.1644    0.0000 C    0  0  0  0  0  0  0  0  0  0  0  0
   19.1441  -18.0127    0.0000 C    0  0  0  0  0  0  0  0  0  0  0  0
   19.1432  -20.3172    0.0000 C    0  0  0  0  0  0  0  0  0  0  0  0
   17.8129  -18.0130    0.0000 C    0  0  0  0  0  0  0  0  0  0  0  0
   17.8200  -20.3128    0.0000 C    0  0  0  0  0  0  0  0  0  0  0  0
   17.1550  -19.1611    0.0000 C    0  0  0  0  0  0  0  0  0  0  0  0
   15.9962  -17.5262    0.0000 C    0  0  0  0  0  0  0  0  0  0  0  0
   15.9962  -18.8570    0.0000 C    0  0  0  0  0  0  0  0  0  0  0  0
   14.8434  -16.8603    0.0000 C    0  0  0  0  0  0  0  0  0  0  0  0
   14.8525  -19.5173    0.0000 C    0  0  0  0  0  0  0  0  0  0  0  0
   13.6997  -17.5207    0.0000 C    0  0  0  0  0  0  0  0  0  0  0  0
   13.7003  -18.8517    0.0000 C    0  0  0  0  0  0  0  0  0  0  0  0
   17.1479  -16.8612    0.0000 P    0  0  0  0  0  0  0  0  0  0  0  0
    8.6173  -22.2676    0.0000 C    0  0  0  0  0  0  0  0  0  0  0  0
    9.8642  -22.7251    0.0000 C    0  0  0  0  0  0  0  0  0  0  0  0
    8.3833  -20.9585    0.0000 C    0  0  0  0  0  0  0  0  0  0  0  0
   10.8854  -21.8692    0.0000 C    0  0  0  0  0  0  0  0  0  0  0  0
    9.4049  -20.1024    0.0000 C    0  0  0  0  0  0  0  0  0  0  0  0
   10.6520  -20.5603    0.0000 C    0  0  0  0  0  0  0  0  0  0  0  0
   14.6907  -21.5255    0.0000 C    0  0  0  0  0  0  0  0  0  0  0  0
   13.8352  -20.5041    0.0000 C    0  0  0  0  0  0  0  0  0  0  0  0
   14.2334  -22.7728    0.0000 C    0  0  0  0  0  0  0  0  0  0  0  0
   12.5291  -20.7256    0.0000 C    0  0  0  0  0  0  0  0  0  0  0  0
   12.9200  -22.9985    0.0000 C    0  0  0  0  0  0  0  0  0  0  0  0
   12.0762  -21.9805    0.0000 C    0  0  0  0  0  0  0  0  0  0  0  0
   10.8221  -18.6906    0.0000 C    0  0  0  0  0  0  0  0  0  0  0  0
   11.2794  -17.4434    0.0000 C    0  0  0  0  0  0  0  0  0  0  0  0
    9.5084  -18.9166    0.0000 C    0  0  0  0  0  0  0  0  0  0  0  0
   10.4282  -16.4302    0.0000 C    0  0  0  0  0  0  0  0  0  0  0  0
    8.6616  -17.9110    0.0000 C    0  0  0  0  0  0  0  0  0  0  0  0
    9.1148  -16.6559    0.0000 C    0  0  0  0  0  0  0  0  0  0  0  0
   11.6776  -19.7121    0.0000 P    0  0  0  0  0  0  0  0  0  0  0  0
   10.8813   -9.3588    0.0000 C    0  0  0  0  0  0  0  0  0  0  0  0
   12.1826   -9.1298    0.0000 C    0  0  0  0  0  0  0  0  0  0  0  0
   10.4240  -10.6061    0.0000 C    0  0  0  0  0  0  0  0  0  0  0  0
   13.0387  -10.1514    0.0000 C    0  0  0  0  0  0  0  0  0  0  0  0
   11.2719  -11.6319    0.0000 C    0  0  0  0  0  0  0  0  0  0  0  0
   12.5812  -11.3983    0.0000 C    0  0  0  0  0  0  0  0  0  0  0  0
   10.1550  -13.6695    0.0000 C    0  0  0  0  0  0  0  0  0  0  0  0
   11.1766  -12.8135    0.0000 C    0  0  0  0  0  0  0  0  0  0  0  0
   10.3843  -14.9706    0.0000 C    0  0  0  0  0  0  0  0  0  0  0  0
   12.4155  -13.2756    0.0000 C    0  0  0  0  0  0  0  0  0  0  0  0
   11.6312  -15.4281    0.0000 C    0  0  0  0  0  0  0  0  0  0  0  0
   12.6491  -14.5849    0.0000 C    0  0  0  0  0  0  0  0  0  0  0  0
   14.4583  -11.5636    0.0000 C    0  0  0  0  0  0  0  0  0  0  0  0
   14.2249  -10.2547    0.0000 C    0  0  0  0  0  0  0  0  0  0  0  0
   15.7054  -12.0215    0.0000 C    0  0  0  0  0  0  0  0  0  0  0  0
   15.2505   -9.4065    0.0000 C    0  0  0  0  0  0  0  0  0  0  0  0
   16.7314  -11.1731    0.0000 C    0  0  0  0  0  0  0  0  0  0  0  0
   16.4980   -9.8641    0.0000 C    0  0  0  0  0  0  0  0  0  0  0  0
   16.3042  -15.8426    0.0000 Rh   0  0  0  0  0  0  0  0  0  0  0  0
   13.4371  -12.4195    0.0000 P    0  0  0  0  0  0  0  0  0  0  0  0
   17.3262  -14.9914    0.0000 N    0  0  0  0  0  0  0  0  0  0  0  0
   17.1000  -13.6808    0.0000 C    0  0  0  0  0  0  0  0  0  0  0  0
   16.8738  -12.3702    0.0000 O    0  0  0  0  0  0  0  0  0  0  0  0
  1  2  1  0  0  0  0
  1  3  2  0  0  0  0
  2  4  2  0  0  0  0
  3  5  1  0  0  0  0
  4  6  1  0  0  0  0
  5  6  2  0  0  0  0
  7  8  1  0  0  0  0
  7  9  2  0  0  0  0
  8 10  2  0  0  0  0
  9 11  1  0  0  0  0
 10 12  1  0  0  0  0
 11 12  2  0  0  0  0
 13 14  1  0  0  0  0
 13 15  2  0  0  0  0
 14 16  2  0  0  0  0
 15 17  1  0  0  0  0
 16 18  1  0  0  0  0
 17 18  2  0  0  0  0
 13 19  1  0  0  0  0
 10 19  1  0  0  0  0
  6 19  1  0  0  0  0
 20 21  1  0  0  0  0
 20 22  2  0  0  0  0
 21 23  2  0  0  0  0
 22 24  1  0  0  0  0
 23 25  1  0  0  0  0
 24 25  2  0  0  0  0
 26 27  1  0  0  0  0
 26 28  2  0  0  0  0
 27 29  2  0  0  0  0
 28 30  1  0  0  0  0
 29 31  1  0  0  0  0
 30 31  2  0  0  0  0
 32 33  1  0  0  0  0
 32 34  2  0  0  0  0
 33 35  2  0  0  0  0
 34 36  1  0  0  0  0
 35 37  1  0  0  0  0
 36 37  2  0  0  0  0
 32 38  1  0  0  0  0
 29 38  1  0  0  0  0
 25 38  1  0  0  0  0
 39 40  1  0  0  0  0
 39 41  2  0  0  0  0
 40 42  2  0  0  0  0
 41 43  1  0  0  0  0
 42 44  1  0  0  0  0
 43 44  2  0  0  0  0
 45 46  1  0  0  0  0
 45 47  2  0  0  0  0
 46 48  2  0  0  0  0
 47 49  1  0  0  0  0
 48 50  1  0  0  0  0
 49 50  2  0  0  0  0
 51 52  1  0  0  0  0
 51 53  2  0  0  0  0
 52 54  2  0  0  0  0
 53 55  1  0  0  0  0
 54 56  1  0  0  0  0
 55 56  2  0  0  0  0
 57 58  1  0  0  0  0
 51 58  1  0  0  0  0
 48 58  1  0  0  0  0
 44 58  1  0  0  0  0
 38 57  1  0  0  0  0
 19 57  1  0  0  0  0
 59 60  2  0  0  0  0
 60 61  2  0  0  0  0
 57 59  1  0  0  0  0
M  END
> <NMREDATA_VERSION>
1.1

> <NMREDATA_LEVEL>
0

> <NMREDATA_SOLVENT>
DCCl3

> <NMREDATA_TEMPERATURE>
247

> <NMREDATA_FORMULA>
C55H48NOP3Rh

> <NMREDATA_SMILES>
O=C=N[Rh](P(c1ccccc1)(c1ccccc1)c1ccccc1)(P(c1ccccc1)(c1ccccc1)c1ccccc1)P(c1ccccc1)(c1ccccc1)c1ccccc1

> <NMREDATA_ASSIGNMENT>
Rh57, -192.00, 57

> <NMREDATA_1D_103Rh>
-192.00, L=Rh57

$$$$

  ACD/LABS03132411262D

 61 69  0  0  0  0  0  0  0  0  1 V2000
   20.6039  -14.8659    0.0000 C    0  0  0  0  0  0  0  0  0  0  0  0
   20.6043  -16.1965    0.0000 C    0  0  0  0  0  0  0  0  0  0  0  0
   19.4515  -14.1999    0.0000 C    0  0  0  0  0  0  0  0  0  0  0  0
   19.4522  -16.8617    0.0000 C    0  0  0  0  0  0  0  0  0  0  0  0
   18.2994  -14.8650    0.0000 C    0  0  0  0  0  0  0  0  0  0  0  0
   18.3000  -16.1960    0.0000 C    0  0  0  0  0  0  0  0  0  0  0  0
   19.8090  -19.1644    0.0000 C    0  0  0  0  0  0  0  0  0  0  0  0
   19.1441  -18.0127    0.0000 C    0  0  0  0  0  0  0  0  0  0  0  0
   19.1432  -20.3172    0.0000 C    0  0  0  0  0  0  0  0  0  0  0  0
   17.8129  -18.0130    0.0000 C    0  0  0  0  0  0  0  0  0  0  0  0
   17.8200  -20.3128    0.0000 C    0  0  0  0  0  0  0  0  0  0  0  0
   17.1550  -19.1611    0.0000 C    0  0  0  0  0  0  0  0  0  0  0  0
   15.9962  -17.5262    0.0000 C    0  0  0  0  0  0  0  0  0  0  0  0
   15.9962  -18.8570    0.0000 C    0  0  0  0  0  0  0  0  0  0  0  0
   14.8434  -16.8603    0.0000 C    0  0  0  0  0  0  0  0  0  0  0  0
   14.8525  -19.5173    0.0000 C    0  0  0  0  0  0  0  0  0  0  0  0
   13.6997  -17.5207    0.0000 C    0  0  0  0  0  0  0  0  0  0  0  0
   13.7003  -18.8517    0.0000 C    0  0  0  0  0  0  0  0  0  0  0  0
   17.1479  -16.8612    0.0000 P    0  0  0  0  0  0  0  0  0  0  0  0
    8.6173  -22.2676    0.0000 C    0  0  0  0  0  0  0  0  0  0  0  0
    9.8642  -22.7251    0.0000 C    0  0  0  0  0  0  0  0  0  0  0  0
    8.3833  -20.9585    0.0000 C    0  0  0  0  0  0  0  0  0  0  0  0
   10.8854  -21.8692    0.0000 C    0  0  0  0  0  0  0  0  0  0  0  0
    9.4049  -20.1024    0.0000 C    0  0  0  0  0  0  0  0  0  0  0  0
   10.6520  -20.5603    0.0000 C    0  0  0  0  0  0  0  0  0  0  0  0
   14.6907  -21.5255    0.0000 C    0  0  0  0  0  0  0  0  0  0  0  0
   13.8352  -20.5041    0.0000 C    0  0  0  0  0  0  0  0  0  0  0  0
   14.2334  -22.7728    0.0000 C    0  0  0  0  0  0  0  0  0  0  0  0
   12.5291  -20.7256    0.0000 C    0  0  0  0  0  0  0  0  0  0  0  0
   12.9200  -22.9985    0.0000 C    0  0  0  0  0  0  0  0  0  0  0  0
   12.0762  -21.9805    0.0000 C    0  0  0  0  0  0  0  0  0  0  0  0
   10.8221  -18.6906    0.0000 C    0  0  0  0  0  0  0  0  0  0  0  0
   11.2794  -17.4434    0.0000 C    0  0  0  0  0  0  0  0  0  0  0  0
    9.5084  -18.9166    0.0000 C    0  0  0  0  0  0  0  0  0  0  0  0
   10.4282  -16.4302    0.0000 C    0  0  0  0  0  0  0  0  0  0  0  0
    8.6616  -17.9110    0.0000 C    0  0  0  0  0  0  0  0  0  0  0  0
    9.1148  -16.6559    0.0000 C    0  0  0  0  0  0  0  0  0  0  0  0
   11.6776  -19.7121    0.0000 P    0  0  0  0  0  0  0  0  0  0  0  0
   10.8813   -9.3588    0.0000 C    0  0  0  0  0  0  0  0  0  0  0  0
   12.1826   -9.1298    0.0000 C    0  0  0  0  0  0  0  0  0  0  0  0
   10.4240  -10.6061    0.0000 C    0  0  0  0  0  0  0  0  0  0  0  0
   13.0387  -10.1514    0.0000 C    0  0  0  0  0  0  0  0  0  0  0  0
   11.2719  -11.6319    0.0000 C    0  0  0  0  0  0  0  0  0  0  0  0
   12.5812  -11.3983    0.0000 C    0  0  0  0  0  0  0  0  0  0  0  0
   10.1550  -13.6695    0.0000 C    0  0  0  0  0  0  0  0  0  0  0  0
   11.1766  -12.8135    0.0000 C    0  0  0  0  0  0  0  0  0  0  0  0
   10.3843  -14.9706    0.0000 C    0  0  0  0  0  0  0  0  0  0  0  0
   12.4155  -13.2756    0.0000 C    0  0  0  0  0  0  0  0  0  0  0  0
   11.6312  -15.4281    0.0000 C    0  0  0  0  0  0  0  0  0  0  0  0
   12.6491  -14.5849    0.0000 C    0  0  0  0  0  0  0  0  0  0  0  0
   14.4583  -11.5636    0.0000 C    0  0  0  0  0  0  0  0  0  0  0  0
   14.2249  -10.2547    0.0000 C    0  0  0  0  0  0  0  0  0  0  0  0
   15.7054  -12.0215    0.0000 C    0  0  0  0  0  0  0  0  0  0  0  0
   15.2505   -9.4065    0.0000 C    0  0  0  0  0  0  0  0  0  0  0  0
   16.7314  -11.1731    0.0000 C    0  0  0  0  0  0  0  0  0  0  0  0
   16.4980   -9.8641    0.0000 C    0  0  0  0  0  0  0  0  0  0  0  0
   16.3042  -15.8426    0.0000 Rh   0  0  0  0  0  0  0  0  0  0  0  0
   13.4371  -12.4195    0.0000 P    0  0  0  0  0  0  0  0  0  0  0  0
   17.3262  -14.9914    0.0000 N    0  0  0  0  0  0  0  0  0  0  0  0
   17.1000  -13.6808    0.0000 C    0  0  0  0  0  0  0  0  0  0  0  0
   16.8738  -12.3702    0.0000 S    0  0  0  0  0  0  0  0  0  0  0  0
  1  2  1  0  0  0  0
  1  3  2  0  0  0  0
  2  4  2  0  0  0  0
  3  5  1  0  0  0  0
  4  6  1  0  0  0  0
  5  6  2  0  0  0  0
  7  8  1  0  0  0  0
  7  9  2  0  0  0  0
  8 10  2  0  0  0  0
  9 11  1  0  0  0  0
 10 12  1  0  0  0  0
 11 12  2  0  0  0  0
 13 14  1  0  0  0  0
 13 15  2  0  0  0  0
 14 16  2  0  0  0  0
 15 17  1  0  0  0  0
 16 18  1  0  0  0  0
 17 18  2  0  0  0  0
 13 19  1  0  0  0  0
 10 19  1  0  0  0  0
  6 19  1  0  0  0  0
 20 21  1  0  0  0  0
 20 22  2  0  0  0  0
 21 23  2  0  0  0  0
 22 24  1  0  0  0  0
 23 25  1  0  0  0  0
 24 25  2  0  0  0  0
 26 27  1  0  0  0  0
 26 28  2  0  0  0  0
 27 29  2  0  0  0  0
 28 30  1  0  0  0  0
 29 31  1  0  0  0  0
 30 31  2  0  0  0  0
 32 33  1  0  0  0  0
 32 34  2  0  0  0  0
 33 35  2  0  0  0  0
 34 36  1  0  0  0  0
 35 37  1  0  0  0  0
 36 37  2  0  0  0  0
 32 38  1  0  0  0  0
 29 38  1  0  0  0  0
 25 38  1  0  0  0  0
 39 40  1  0  0  0  0
 39 41  2  0  0  0  0
 40 42  2  0  0  0  0
 41 43  1  0  0  0  0
 42 44  1  0  0  0  0
 43 44  2  0  0  0  0
 45 46  1  0  0  0  0
 45 47  2  0  0  0  0
 46 48  2  0  0  0  0
 47 49  1  0  0  0  0
 48 50  1  0  0  0  0
 49 50  2  0  0  0  0
 51 52  1  0  0  0  0
 51 53  2  0  0  0  0
 52 54  2  0  0  0  0
 53 55  1  0  0  0  0
 54 56  1  0  0  0  0
 55 56  2  0  0  0  0
 57 58  1  0  0  0  0
 51 58  1  0  0  0  0
 48 58  1  0  0  0  0
 44 58  1  0  0  0  0
 38 57  1  0  0  0  0
 19 57  1  0  0  0  0
 59 60  2  0  0  0  0
 60 61  2  0  0  0  0
 57 59  1  0  0  0  0
M  END
> <NMREDATA_VERSION>
1.1

> <NMREDATA_LEVEL>
0

> <NMREDATA_SOLVENT>
DCCl3

> <NMREDATA_TEMPERATURE>
300

> <NMREDATA_FORMULA>
C55H48NP3RhS

> <NMREDATA_SMILES>
S=C=N[Rh](P(c1ccccc1)(c1ccccc1)c1ccccc1)(P(c1ccccc1)(c1ccccc1)c1ccccc1)P(c1ccccc1)(c1ccccc1)c1ccccc1

> <NMREDATA_ASSIGNMENT>
Rh57, -156.00, 57

> <NMREDATA_1D_103Rh>
-156.00, L=Rh57

$$$$

  ACD/LABS03132411262D

 61 69  0  0  0  0  0  0  0  0  1 V2000
   20.6039  -14.8659    0.0000 C    0  0  0  0  0  0  0  0  0  0  0  0
   20.6043  -16.1965    0.0000 C    0  0  0  0  0  0  0  0  0  0  0  0
   19.4515  -14.1999    0.0000 C    0  0  0  0  0  0  0  0  0  0  0  0
   19.4522  -16.8617    0.0000 C    0  0  0  0  0  0  0  0  0  0  0  0
   18.2994  -14.8650    0.0000 C    0  0  0  0  0  0  0  0  0  0  0  0
   18.3000  -16.1960    0.0000 C    0  0  0  0  0  0  0  0  0  0  0  0
   19.8090  -19.1644    0.0000 C    0  0  0  0  0  0  0  0  0  0  0  0
   19.1441  -18.0127    0.0000 C    0  0  0  0  0  0  0  0  0  0  0  0
   19.1432  -20.3172    0.0000 C    0  0  0  0  0  0  0  0  0  0  0  0
   17.8129  -18.0130    0.0000 C    0  0  0  0  0  0  0  0  0  0  0  0
   17.8200  -20.3128    0.0000 C    0  0  0  0  0  0  0  0  0  0  0  0
   17.1550  -19.1611    0.0000 C    0  0  0  0  0  0  0  0  0  0  0  0
   15.9962  -17.5262    0.0000 C    0  0  0  0  0  0  0  0  0  0  0  0
   15.9962  -18.8570    0.0000 C    0  0  0  0  0  0  0  0  0  0  0  0
   14.8434  -16.8603    0.0000 C    0  0  0  0  0  0  0  0  0  0  0  0
   14.8525  -19.5173    0.0000 C    0  0  0  0  0  0  0  0  0  0  0  0
   13.6997  -17.5207    0.0000 C    0  0  0  0  0  0  0  0  0  0  0  0
   13.7003  -18.8517    0.0000 C    0  0  0  0  0  0  0  0  0  0  0  0
   17.1479  -16.8612    0.0000 P    0  0  0  0  0  0  0  0  0  0  0  0
    8.6173  -22.2676    0.0000 C    0  0  0  0  0  0  0  0  0  0  0  0
    9.8642  -22.7251    0.0000 C    0  0  0  0  0  0  0  0  0  0  0  0
    8.3833  -20.9585    0.0000 C    0  0  0  0  0  0  0  0  0  0  0  0
   10.8854  -21.8692    0.0000 C    0  0  0  0  0  0  0  0  0  0  0  0
    9.4049  -20.1024    0.0000 C    0  0  0  0  0  0  0  0  0  0  0  0
   10.6520  -20.5603    0.0000 C    0  0  0  0  0  0  0  0  0  0  0  0
   14.6907  -21.5255    0.0000 C    0  0  0  0  0  0  0  0  0  0  0  0
   13.8352  -20.5041    0.0000 C    0  0  0  0  0  0  0  0  0  0  0  0
   14.2334  -22.7728    0.0000 C    0  0  0  0  0  0  0  0  0  0  0  0
   12.5291  -20.7256    0.0000 C    0  0  0  0  0  0  0  0  0  0  0  0
   12.9200  -22.9985    0.0000 C    0  0  0  0  0  0  0  0  0  0  0  0
   12.0762  -21.9805    0.0000 C    0  0  0  0  0  0  0  0  0  0  0  0
   10.8221  -18.6906    0.0000 C    0  0  0  0  0  0  0  0  0  0  0  0
   11.2794  -17.4434    0.0000 C    0  0  0  0  0  0  0  0  0  0  0  0
    9.5084  -18.9166    0.0000 C    0  0  0  0  0  0  0  0  0  0  0  0
   10.4282  -16.4302    0.0000 C    0  0  0  0  0  0  0  0  0  0  0  0
    8.6616  -17.9110    0.0000 C    0  0  0  0  0  0  0  0  0  0  0  0
    9.1148  -16.6559    0.0000 C    0  0  0  0  0  0  0  0  0  0  0  0
   11.6776  -19.7121    0.0000 P    0  0  0  0  0  0  0  0  0  0  0  0
   10.8813   -9.3588    0.0000 C    0  0  0  0  0  0  0  0  0  0  0  0
   12.1826   -9.1298    0.0000 C    0  0  0  0  0  0  0  0  0  0  0  0
   10.4240  -10.6061    0.0000 C    0  0  0  0  0  0  0  0  0  0  0  0
   13.0387  -10.1514    0.0000 C    0  0  0  0  0  0  0  0  0  0  0  0
   11.2719  -11.6319    0.0000 C    0  0  0  0  0  0  0  0  0  0  0  0
   12.5812  -11.3983    0.0000 C    0  0  0  0  0  0  0  0  0  0  0  0
   10.1550  -13.6695    0.0000 C    0  0  0  0  0  0  0  0  0  0  0  0
   11.1766  -12.8135    0.0000 C    0  0  0  0  0  0  0  0  0  0  0  0
   10.3843  -14.9706    0.0000 C    0  0  0  0  0  0  0  0  0  0  0  0
   12.4155  -13.2756    0.0000 C    0  0  0  0  0  0  0  0  0  0  0  0
   11.6312  -15.4281    0.0000 C    0  0  0  0  0  0  0  0  0  0  0  0
   12.6491  -14.5849    0.0000 C    0  0  0  0  0  0  0  0  0  0  0  0
   14.4583  -11.5636    0.0000 C    0  0  0  0  0  0  0  0  0  0  0  0
   14.2249  -10.2547    0.0000 C    0  0  0  0  0  0  0  0  0  0  0  0
   15.7054  -12.0215    0.0000 C    0  0  0  0  0  0  0  0  0  0  0  0
   15.2505   -9.4065    0.0000 C    0  0  0  0  0  0  0  0  0  0  0  0
   16.7314  -11.1731    0.0000 C    0  0  0  0  0  0  0  0  0  0  0  0
   16.4980   -9.8641    0.0000 C    0  0  0  0  0  0  0  0  0  0  0  0
   16.3042  -15.8426    0.0000 Rh   0  0  0  0  0  0  0  0  0  0  0  0
   13.4371  -12.4195    0.0000 P    0  0  0  0  0  0  0  0  0  0  0  0
   17.3262  -14.9914    0.0000 N    0  0  0  0  0  0  0  0  0  0  0  0
   17.1000  -13.6808    0.0000 C    0  0  0  0  0  0  0  0  0  0  0  0
   16.8738  -12.3702    0.0000 S    0  0  0  0  0  0  0  0  0  0  0  0
  1  2  1  0  0  0  0
  1  3  2  0  0  0  0
  2  4  2  0  0  0  0
  3  5  1  0  0  0  0
  4  6  1  0  0  0  0
  5  6  2  0  0  0  0
  7  8  1  0  0  0  0
  7  9  2  0  0  0  0
  8 10  2  0  0  0  0
  9 11  1  0  0  0  0
 10 12  1  0  0  0  0
 11 12  2  0  0  0  0
 13 14  1  0  0  0  0
 13 15  2  0  0  0  0
 14 16  2  0  0  0  0
 15 17  1  0  0  0  0
 16 18  1  0  0  0  0
 17 18  2  0  0  0  0
 13 19  1  0  0  0  0
 10 19  1  0  0  0  0
  6 19  1  0  0  0  0
 20 21  1  0  0  0  0
 20 22  2  0  0  0  0
 21 23  2  0  0  0  0
 22 24  1  0  0  0  0
 23 25  1  0  0  0  0
 24 25  2  0  0  0  0
 26 27  1  0  0  0  0
 26 28  2  0  0  0  0
 27 29  2  0  0  0  0
 28 30  1  0  0  0  0
 29 31  1  0  0  0  0
 30 31  2  0  0  0  0
 32 33  1  0  0  0  0
 32 34  2  0  0  0  0
 33 35  2  0  0  0  0
 34 36  1  0  0  0  0
 35 37  1  0  0  0  0
 36 37  2  0  0  0  0
 32 38  1  0  0  0  0
 29 38  1  0  0  0  0
 25 38  1  0  0  0  0
 39 40  1  0  0  0  0
 39 41  2  0  0  0  0
 40 42  2  0  0  0  0
 41 43  1  0  0  0  0
 42 44  1  0  0  0  0
 43 44  2  0  0  0  0
 45 46  1  0  0  0  0
 45 47  2  0  0  0  0
 46 48  2  0  0  0  0
 47 49  1  0  0  0  0
 48 50  1  0  0  0  0
 49 50  2  0  0  0  0
 51 52  1  0  0  0  0
 51 53  2  0  0  0  0
 52 54  2  0  0  0  0
 53 55  1  0  0  0  0
 54 56  1  0  0  0  0
 55 56  2  0  0  0  0
 57 58  1  0  0  0  0
 51 58  1  0  0  0  0
 48 58  1  0  0  0  0
 44 58  1  0  0  0  0
 38 57  1  0  0  0  0
 19 57  1  0  0  0  0
 59 60  2  0  0  0  0
 60 61  2  0  0  0  0
 57 59  1  0  0  0  0
M  END
> <NMREDATA_VERSION>
1.1

> <NMREDATA_LEVEL>
0

> <NMREDATA_SOLVENT>
DCCl3

> <NMREDATA_TEMPERATURE>
247

> <NMREDATA_FORMULA>
C55H48NP3RhS

> <NMREDATA_SMILES>
S=C=N[Rh](P(c1ccccc1)(c1ccccc1)c1ccccc1)(P(c1ccccc1)(c1ccccc1)c1ccccc1)P(c1ccccc1)(c1ccccc1)c1ccccc1

> <NMREDATA_ASSIGNMENT>
Rh57, -186.00, 57

> <NMREDATA_1D_103Rh>
-186.00, L=Rh57

$$$$

  ACD/LABS03132411272D

 63 71  0  0  0  0  0  0  0  0  1 V2000
   20.6039  -14.8659    0.0000 C    0  0  0  0  0  0  0  0  0  0  0  0
   20.6043  -16.1965    0.0000 C    0  0  0  0  0  0  0  0  0  0  0  0
   19.4515  -14.1999    0.0000 C    0  0  0  0  0  0  0  0  0  0  0  0
   19.4522  -16.8617    0.0000 C    0  0  0  0  0  0  0  0  0  0  0  0
   18.2994  -14.8650    0.0000 C    0  0  0  0  0  0  0  0  0  0  0  0
   18.3000  -16.1960    0.0000 C    0  0  0  0  0  0  0  0  0  0  0  0
   19.8090  -19.1644    0.0000 C    0  0  0  0  0  0  0  0  0  0  0  0
   19.1441  -18.0127    0.0000 C    0  0  0  0  0  0  0  0  0  0  0  0
   19.1432  -20.3172    0.0000 C    0  0  0  0  0  0  0  0  0  0  0  0
   17.8129  -18.0130    0.0000 C    0  0  0  0  0  0  0  0  0  0  0  0
   17.8200  -20.3128    0.0000 C    0  0  0  0  0  0  0  0  0  0  0  0
   17.1550  -19.1611    0.0000 C    0  0  0  0  0  0  0  0  0  0  0  0
   15.9962  -17.5262    0.0000 C    0  0  0  0  0  0  0  0  0  0  0  0
   15.9962  -18.8570    0.0000 C    0  0  0  0  0  0  0  0  0  0  0  0
   14.8434  -16.8603    0.0000 C    0  0  0  0  0  0  0  0  0  0  0  0
   14.8525  -19.5173    0.0000 C    0  0  0  0  0  0  0  0  0  0  0  0
   13.6997  -17.5207    0.0000 C    0  0  0  0  0  0  0  0  0  0  0  0
   13.7003  -18.8517    0.0000 C    0  0  0  0  0  0  0  0  0  0  0  0
   17.1479  -16.8612    0.0000 P    0  0  0  0  0  0  0  0  0  0  0  0
    8.6173  -22.2676    0.0000 C    0  0  0  0  0  0  0  0  0  0  0  0
    9.8642  -22.7251    0.0000 C    0  0  0  0  0  0  0  0  0  0  0  0
    8.3833  -20.9585    0.0000 C    0  0  0  0  0  0  0  0  0  0  0  0
   10.8854  -21.8692    0.0000 C    0  0  0  0  0  0  0  0  0  0  0  0
    9.4049  -20.1024    0.0000 C    0  0  0  0  0  0  0  0  0  0  0  0
   10.6520  -20.5603    0.0000 C    0  0  0  0  0  0  0  0  0  0  0  0
   14.6907  -21.5255    0.0000 C    0  0  0  0  0  0  0  0  0  0  0  0
   13.8352  -20.5041    0.0000 C    0  0  0  0  0  0  0  0  0  0  0  0
   14.2334  -22.7728    0.0000 C    0  0  0  0  0  0  0  0  0  0  0  0
   12.5291  -20.7256    0.0000 C    0  0  0  0  0  0  0  0  0  0  0  0
   12.9200  -22.9985    0.0000 C    0  0  0  0  0  0  0  0  0  0  0  0
   12.0762  -21.9805    0.0000 C    0  0  0  0  0  0  0  0  0  0  0  0
   10.8221  -18.6906    0.0000 C    0  0  0  0  0  0  0  0  0  0  0  0
   11.2794  -17.4434    0.0000 C    0  0  0  0  0  0  0  0  0  0  0  0
    9.5084  -18.9166    0.0000 C    0  0  0  0  0  0  0  0  0  0  0  0
   10.4282  -16.4302    0.0000 C    0  0  0  0  0  0  0  0  0  0  0  0
    8.6616  -17.9110    0.0000 C    0  0  0  0  0  0  0  0  0  0  0  0
    9.1148  -16.6559    0.0000 C    0  0  0  0  0  0  0  0  0  0  0  0
   11.6776  -19.7121    0.0000 P    0  0  0  0  0  0  0  0  0  0  0  0
   10.8813   -9.3588    0.0000 C    0  0  0  0  0  0  0  0  0  0  0  0
   12.1826   -9.1298    0.0000 C    0  0  0  0  0  0  0  0  0  0  0  0
   10.4240  -10.6061    0.0000 C    0  0  0  0  0  0  0  0  0  0  0  0
   13.0387  -10.1514    0.0000 C    0  0  0  0  0  0  0  0  0  0  0  0
   11.2719  -11.6319    0.0000 C    0  0  0  0  0  0  0  0  0  0  0  0
   12.5812  -11.3983    0.0000 C    0  0  0  0  0  0  0  0  0  0  0  0
   10.1550  -13.6695    0.0000 C    0  0  0  0  0  0  0  0  0  0  0  0
   11.1766  -12.8135    0.0000 C    0  0  0  0  0  0  0  0  0  0  0  0
   10.3843  -14.9706    0.0000 C    0  0  0  0  0  0  0  0  0  0  0  0
   12.4155  -13.2756    0.0000 C    0  0  0  0  0  0  0  0  0  0  0  0
   11.6312  -15.4281    0.0000 C    0  0  0  0  0  0  0  0  0  0  0  0
   12.6491  -14.5849    0.0000 C    0  0  0  0  0  0  0  0  0  0  0  0
   14.4583  -11.5636    0.0000 C    0  0  0  0  0  0  0  0  0  0  0  0
   14.2249  -10.2547    0.0000 C    0  0  0  0  0  0  0  0  0  0  0  0
   15.7054  -12.0215    0.0000 C    0  0  0  0  0  0  0  0  0  0  0  0
   15.2505   -9.4065    0.0000 C    0  0  0  0  0  0  0  0  0  0  0  0
   16.7314  -11.1731    0.0000 C    0  0  0  0  0  0  0  0  0  0  0  0
   16.4980   -9.8641    0.0000 C    0  0  0  0  0  0  0  0  0  0  0  0
   16.3042  -15.8426    0.0000 Rh   0  0  0  0  0  0  0  0  0  0  0  0
   13.4371  -12.4195    0.0000 P    0  0  0  0  0  0  0  0  0  0  0  0
   17.3262  -14.9914    0.0000 N    0  0  0  0  0  0  0  0  0  0  0  0
   18.5743  -15.4509    0.0000 C    0  0  0  0  0  0  0  0  0  0  0  0
   19.8224  -15.9103    0.0000 N    0  0  0  0  0  0  0  0  0  0  0  0
   17.1000  -13.6808    0.0000 C    0  0  0  0  0  0  0  0  0  0  0  0
   16.8738  -12.3702    0.0000 N    0  0  0  0  0  0  0  0  0  0  0  0
  1  2  1  0  0  0  0
  1  3  2  0  0  0  0
  2  4  2  0  0  0  0
  3  5  1  0  0  0  0
  4  6  1  0  0  0  0
  5  6  2  0  0  0  0
  7  8  1  0  0  0  0
  7  9  2  0  0  0  0
  8 10  2  0  0  0  0
  9 11  1  0  0  0  0
 10 12  1  0  0  0  0
 11 12  2  0  0  0  0
 13 14  1  0  0  0  0
 13 15  2  0  0  0  0
 14 16  2  0  0  0  0
 15 17  1  0  0  0  0
 16 18  1  0  0  0  0
 17 18  2  0  0  0  0
 13 19  1  0  0  0  0
 10 19  1  0  0  0  0
  6 19  1  0  0  0  0
 20 21  1  0  0  0  0
 20 22  2  0  0  0  0
 21 23  2  0  0  0  0
 22 24  1  0  0  0  0
 23 25  1  0  0  0  0
 24 25  2  0  0  0  0
 26 27  1  0  0  0  0
 26 28  2  0  0  0  0
 27 29  2  0  0  0  0
 28 30  1  0  0  0  0
 29 31  1  0  0  0  0
 30 31  2  0  0  0  0
 32 33  1  0  0  0  0
 32 34  2  0  0  0  0
 33 35  2  0  0  0  0
 34 36  1  0  0  0  0
 35 37  1  0  0  0  0
 36 37  2  0  0  0  0
 32 38  1  0  0  0  0
 29 38  1  0  0  0  0
 25 38  1  0  0  0  0
 39 40  1  0  0  0  0
 39 41  2  0  0  0  0
 40 42  2  0  0  0  0
 41 43  1  0  0  0  0
 42 44  1  0  0  0  0
 43 44  2  0  0  0  0
 45 46  1  0  0  0  0
 45 47  2  0  0  0  0
 46 48  2  0  0  0  0
 47 49  1  0  0  0  0
 48 50  1  0  0  0  0
 49 50  2  0  0  0  0
 51 52  1  0  0  0  0
 51 53  2  0  0  0  0
 52 54  2  0  0  0  0
 53 55  1  0  0  0  0
 54 56  1  0  0  0  0
 55 56  2  0  0  0  0
 57 58  1  0  0  0  0
 51 58  1  0  0  0  0
 48 58  1  0  0  0  0
 44 58  1  0  0  0  0
 38 57  1  0  0  0  0
 19 57  1  0  0  0  0
 57 59  1  0  0  0  0
 60 61  3  0  0  0  0
 59 60  1  0  0  0  0
 62 63  3  0  0  0  0
 59 62  1  0  0  0  0
M  END
> <NMREDATA_VERSION>
1.1

> <NMREDATA_LEVEL>
0

> <NMREDATA_SOLVENT>
DCCl3

> <NMREDATA_TEMPERATURE>
300

> <NMREDATA_FORMULA>
C56H48N3P3Rh

> <NMREDATA_SMILES>
N#CN([Rh](P(c1ccccc1)(c1ccccc1)c1ccccc1)(P(c1ccccc1)(c1ccccc1)c1ccccc1)P(c1ccccc1)(c1ccccc1)c1ccccc1)C#N

> <NMREDATA_ASSIGNMENT>
Rh57, -214.00, 57

> <NMREDATA_1D_103Rh>
-214.00, L=Rh57

$$$$

  ACD/LABS03132411272D

 63 71  0  0  0  0  0  0  0  0  1 V2000
   20.6039  -14.8659    0.0000 C    0  0  0  0  0  0  0  0  0  0  0  0
   20.6043  -16.1965    0.0000 C    0  0  0  0  0  0  0  0  0  0  0  0
   19.4515  -14.1999    0.0000 C    0  0  0  0  0  0  0  0  0  0  0  0
   19.4522  -16.8617    0.0000 C    0  0  0  0  0  0  0  0  0  0  0  0
   18.2994  -14.8650    0.0000 C    0  0  0  0  0  0  0  0  0  0  0  0
   18.3000  -16.1960    0.0000 C    0  0  0  0  0  0  0  0  0  0  0  0
   19.8090  -19.1644    0.0000 C    0  0  0  0  0  0  0  0  0  0  0  0
   19.1441  -18.0127    0.0000 C    0  0  0  0  0  0  0  0  0  0  0  0
   19.1432  -20.3172    0.0000 C    0  0  0  0  0  0  0  0  0  0  0  0
   17.8129  -18.0130    0.0000 C    0  0  0  0  0  0  0  0  0  0  0  0
   17.8200  -20.3128    0.0000 C    0  0  0  0  0  0  0  0  0  0  0  0
   17.1550  -19.1611    0.0000 C    0  0  0  0  0  0  0  0  0  0  0  0
   15.9962  -17.5262    0.0000 C    0  0  0  0  0  0  0  0  0  0  0  0
   15.9962  -18.8570    0.0000 C    0  0  0  0  0  0  0  0  0  0  0  0
   14.8434  -16.8603    0.0000 C    0  0  0  0  0  0  0  0  0  0  0  0
   14.8525  -19.5173    0.0000 C    0  0  0  0  0  0  0  0  0  0  0  0
   13.6997  -17.5207    0.0000 C    0  0  0  0  0  0  0  0  0  0  0  0
   13.7003  -18.8517    0.0000 C    0  0  0  0  0  0  0  0  0  0  0  0
   17.1479  -16.8612    0.0000 P    0  0  0  0  0  0  0  0  0  0  0  0
    8.6173  -22.2676    0.0000 C    0  0  0  0  0  0  0  0  0  0  0  0
    9.8642  -22.7251    0.0000 C    0  0  0  0  0  0  0  0  0  0  0  0
    8.3833  -20.9585    0.0000 C    0  0  0  0  0  0  0  0  0  0  0  0
   10.8854  -21.8692    0.0000 C    0  0  0  0  0  0  0  0  0  0  0  0
    9.4049  -20.1024    0.0000 C    0  0  0  0  0  0  0  0  0  0  0  0
   10.6520  -20.5603    0.0000 C    0  0  0  0  0  0  0  0  0  0  0  0
   14.6907  -21.5255    0.0000 C    0  0  0  0  0  0  0  0  0  0  0  0
   13.8352  -20.5041    0.0000 C    0  0  0  0  0  0  0  0  0  0  0  0
   14.2334  -22.7728    0.0000 C    0  0  0  0  0  0  0  0  0  0  0  0
   12.5291  -20.7256    0.0000 C    0  0  0  0  0  0  0  0  0  0  0  0
   12.9200  -22.9985    0.0000 C    0  0  0  0  0  0  0  0  0  0  0  0
   12.0762  -21.9805    0.0000 C    0  0  0  0  0  0  0  0  0  0  0  0
   10.8221  -18.6906    0.0000 C    0  0  0  0  0  0  0  0  0  0  0  0
   11.2794  -17.4434    0.0000 C    0  0  0  0  0  0  0  0  0  0  0  0
    9.5084  -18.9166    0.0000 C    0  0  0  0  0  0  0  0  0  0  0  0
   10.4282  -16.4302    0.0000 C    0  0  0  0  0  0  0  0  0  0  0  0
    8.6616  -17.9110    0.0000 C    0  0  0  0  0  0  0  0  0  0  0  0
    9.1148  -16.6559    0.0000 C    0  0  0  0  0  0  0  0  0  0  0  0
   11.6776  -19.7121    0.0000 P    0  0  0  0  0  0  0  0  0  0  0  0
   10.8813   -9.3588    0.0000 C    0  0  0  0  0  0  0  0  0  0  0  0
   12.1826   -9.1298    0.0000 C    0  0  0  0  0  0  0  0  0  0  0  0
   10.4240  -10.6061    0.0000 C    0  0  0  0  0  0  0  0  0  0  0  0
   13.0387  -10.1514    0.0000 C    0  0  0  0  0  0  0  0  0  0  0  0
   11.2719  -11.6319    0.0000 C    0  0  0  0  0  0  0  0  0  0  0  0
   12.5812  -11.3983    0.0000 C    0  0  0  0  0  0  0  0  0  0  0  0
   10.1550  -13.6695    0.0000 C    0  0  0  0  0  0  0  0  0  0  0  0
   11.1766  -12.8135    0.0000 C    0  0  0  0  0  0  0  0  0  0  0  0
   10.3843  -14.9706    0.0000 C    0  0  0  0  0  0  0  0  0  0  0  0
   12.4155  -13.2756    0.0000 C    0  0  0  0  0  0  0  0  0  0  0  0
   11.6312  -15.4281    0.0000 C    0  0  0  0  0  0  0  0  0  0  0  0
   12.6491  -14.5849    0.0000 C    0  0  0  0  0  0  0  0  0  0  0  0
   14.4583  -11.5636    0.0000 C    0  0  0  0  0  0  0  0  0  0  0  0
   14.2249  -10.2547    0.0000 C    0  0  0  0  0  0  0  0  0  0  0  0
   15.7054  -12.0215    0.0000 C    0  0  0  0  0  0  0  0  0  0  0  0
   15.2505   -9.4065    0.0000 C    0  0  0  0  0  0  0  0  0  0  0  0
   16.7314  -11.1731    0.0000 C    0  0  0  0  0  0  0  0  0  0  0  0
   16.4980   -9.8641    0.0000 C    0  0  0  0  0  0  0  0  0  0  0  0
   16.3042  -15.8426    0.0000 Rh   0  0  0  0  0  0  0  0  0  0  0  0
   13.4371  -12.4195    0.0000 P    0  0  0  0  0  0  0  0  0  0  0  0
   17.3262  -14.9914    0.0000 N    0  0  0  0  0  0  0  0  0  0  0  0
   18.5743  -15.4509    0.0000 C    0  0  0  0  0  0  0  0  0  0  0  0
   19.8224  -15.9103    0.0000 N    0  0  0  0  0  0  0  0  0  0  0  0
   17.1000  -13.6808    0.0000 C    0  0  0  0  0  0  0  0  0  0  0  0
   16.8738  -12.3702    0.0000 N    0  0  0  0  0  0  0  0  0  0  0  0
  1  2  1  0  0  0  0
  1  3  2  0  0  0  0
  2  4  2  0  0  0  0
  3  5  1  0  0  0  0
  4  6  1  0  0  0  0
  5  6  2  0  0  0  0
  7  8  1  0  0  0  0
  7  9  2  0  0  0  0
  8 10  2  0  0  0  0
  9 11  1  0  0  0  0
 10 12  1  0  0  0  0
 11 12  2  0  0  0  0
 13 14  1  0  0  0  0
 13 15  2  0  0  0  0
 14 16  2  0  0  0  0
 15 17  1  0  0  0  0
 16 18  1  0  0  0  0
 17 18  2  0  0  0  0
 13 19  1  0  0  0  0
 10 19  1  0  0  0  0
  6 19  1  0  0  0  0
 20 21  1  0  0  0  0
 20 22  2  0  0  0  0
 21 23  2  0  0  0  0
 22 24  1  0  0  0  0
 23 25  1  0  0  0  0
 24 25  2  0  0  0  0
 26 27  1  0  0  0  0
 26 28  2  0  0  0  0
 27 29  2  0  0  0  0
 28 30  1  0  0  0  0
 29 31  1  0  0  0  0
 30 31  2  0  0  0  0
 32 33  1  0  0  0  0
 32 34  2  0  0  0  0
 33 35  2  0  0  0  0
 34 36  1  0  0  0  0
 35 37  1  0  0  0  0
 36 37  2  0  0  0  0
 32 38  1  0  0  0  0
 29 38  1  0  0  0  0
 25 38  1  0  0  0  0
 39 40  1  0  0  0  0
 39 41  2  0  0  0  0
 40 42  2  0  0  0  0
 41 43  1  0  0  0  0
 42 44  1  0  0  0  0
 43 44  2  0  0  0  0
 45 46  1  0  0  0  0
 45 47  2  0  0  0  0
 46 48  2  0  0  0  0
 47 49  1  0  0  0  0
 48 50  1  0  0  0  0
 49 50  2  0  0  0  0
 51 52  1  0  0  0  0
 51 53  2  0  0  0  0
 52 54  2  0  0  0  0
 53 55  1  0  0  0  0
 54 56  1  0  0  0  0
 55 56  2  0  0  0  0
 57 58  1  0  0  0  0
 51 58  1  0  0  0  0
 48 58  1  0  0  0  0
 44 58  1  0  0  0  0
 38 57  1  0  0  0  0
 19 57  1  0  0  0  0
 57 59  1  0  0  0  0
 60 61  3  0  0  0  0
 59 60  1  0  0  0  0
 62 63  3  0  0  0  0
 59 62  1  0  0  0  0
M  END
> <NMREDATA_VERSION>
1.1

> <NMREDATA_LEVEL>
0

> <NMREDATA_SOLVENT>
DCCl3

> <NMREDATA_TEMPERATURE>
247

> <NMREDATA_FORMULA>
C56H48N3P3Rh

> <NMREDATA_SMILES>
N#CN([Rh](P(c1ccccc1)(c1ccccc1)c1ccccc1)(P(c1ccccc1)(c1ccccc1)c1ccccc1)P(c1ccccc1)(c1ccccc1)c1ccccc1)C#N

> <NMREDATA_ASSIGNMENT>
Rh57, -255.00, 57

> <NMREDATA_1D_103Rh>
-255.00, L=Rh57

$$$$

  ACD/LABS03132411282D

 79 90  0  0  0  0  0  0  0  0  1 V2000
   24.1304  -14.0611    0.0000 C    0  0  0  0  0  0  0  0  0  0  0  0
   24.1304  -15.3911    0.0000 C    0  0  0  0  0  0  0  0  0  0  0  0
   22.9785  -13.3961    0.0000 C    0  0  0  0  0  0  0  0  0  0  0  0
   22.9785  -16.0562    0.0000 C    0  0  0  0  0  0  0  0  0  0  0  0
   21.8267  -14.0611    0.0000 C    0  0  0  0  0  0  0  0  0  0  0  0
   21.8267  -15.3911    0.0000 C    0  0  0  0  0  0  0  0  0  0  0  0
   24.3067  -11.0326    0.0000 C    0  0  0  0  0  0  0  0  0  0  0  0
   24.3067  -12.3626    0.0000 C    0  0  0  0  0  0  0  0  0  0  0  0
   23.1548  -10.3676    0.0000 C    0  0  0  0  0  0  0  0  0  0  0  0
   23.1548  -13.0276    0.0000 C    0  0  0  0  0  0  0  0  0  0  0  0
   22.0030  -11.0326    0.0000 C    0  0  0  0  0  0  0  0  0  0  0  0
   22.0030  -12.3626    0.0000 C    0  0  0  0  0  0  0  0  0  0  0  0
   21.5185   -9.3020    0.0000 C    0  0  0  0  0  0  0  0  0  0  0  0
   21.5185  -10.6320    0.0000 C    0  0  0  0  0  0  0  0  0  0  0  0
   20.3666   -8.6370    0.0000 C    0  0  0  0  0  0  0  0  0  0  0  0
   20.3666  -11.2970    0.0000 C    0  0  0  0  0  0  0  0  0  0  0  0
   19.2148   -9.3020    0.0000 C    0  0  0  0  0  0  0  0  0  0  0  0
   19.2148  -10.6320    0.0000 C    0  0  0  0  0  0  0  0  0  0  0  0
   20.6039  -14.8659    0.0000 C    0  0  0  0  0  0  0  0  0  0  0  0
   20.6043  -16.1965    0.0000 C    0  0  0  0  0  0  0  0  0  0  0  0
   19.4515  -14.1999    0.0000 C    0  0  0  0  0  0  0  0  0  0  0  0
   19.4522  -16.8617    0.0000 C    0  0  0  0  0  0  0  0  0  0  0  0
   18.2994  -14.8650    0.0000 C    0  0  0  0  0  0  0  0  0  0  0  0
   18.3000  -16.1960    0.0000 C    0  0  0  0  0  0  0  0  0  0  0  0
   19.8090  -19.1644    0.0000 C    0  0  0  0  0  0  0  0  0  0  0  0
   19.1441  -18.0127    0.0000 C    0  0  0  0  0  0  0  0  0  0  0  0
   19.1432  -20.3172    0.0000 C    0  0  0  0  0  0  0  0  0  0  0  0
   17.8129  -18.0130    0.0000 C    0  0  0  0  0  0  0  0  0  0  0  0
   17.8200  -20.3128    0.0000 C    0  0  0  0  0  0  0  0  0  0  0  0
   17.1550  -19.1611    0.0000 C    0  0  0  0  0  0  0  0  0  0  0  0
   15.9962  -17.5262    0.0000 C    0  0  0  0  0  0  0  0  0  0  0  0
   15.9962  -18.8570    0.0000 C    0  0  0  0  0  0  0  0  0  0  0  0
   14.8434  -16.8603    0.0000 C    0  0  0  0  0  0  0  0  0  0  0  0
   14.8525  -19.5173    0.0000 C    0  0  0  0  0  0  0  0  0  0  0  0
   13.6997  -17.5207    0.0000 C    0  0  0  0  0  0  0  0  0  0  0  0
   13.7003  -18.8517    0.0000 C    0  0  0  0  0  0  0  0  0  0  0  0
   17.1479  -16.8612    0.0000 P    0  0  0  0  0  0  0  0  0  0  0  0
    8.6173  -22.2676    0.0000 C    0  0  0  0  0  0  0  0  0  0  0  0
    9.8642  -22.7251    0.0000 C    0  0  0  0  0  0  0  0  0  0  0  0
    8.3833  -20.9585    0.0000 C    0  0  0  0  0  0  0  0  0  0  0  0
   10.8854  -21.8692    0.0000 C    0  0  0  0  0  0  0  0  0  0  0  0
    9.4049  -20.1024    0.0000 C    0  0  0  0  0  0  0  0  0  0  0  0
   10.6520  -20.5603    0.0000 C    0  0  0  0  0  0  0  0  0  0  0  0
   14.6907  -21.5255    0.0000 C    0  0  0  0  0  0  0  0  0  0  0  0
   13.8352  -20.5041    0.0000 C    0  0  0  0  0  0  0  0  0  0  0  0
   14.2334  -22.7728    0.0000 C    0  0  0  0  0  0  0  0  0  0  0  0
   12.5291  -20.7256    0.0000 C    0  0  0  0  0  0  0  0  0  0  0  0
   12.9200  -22.9985    0.0000 C    0  0  0  0  0  0  0  0  0  0  0  0
   12.0762  -21.9805    0.0000 C    0  0  0  0  0  0  0  0  0  0  0  0
   10.8221  -18.6906    0.0000 C    0  0  0  0  0  0  0  0  0  0  0  0
   11.2794  -17.4434    0.0000 C    0  0  0  0  0  0  0  0  0  0  0  0
    9.5084  -18.9166    0.0000 C    0  0  0  0  0  0  0  0  0  0  0  0
   10.4282  -16.4302    0.0000 C    0  0  0  0  0  0  0  0  0  0  0  0
    8.6616  -17.9110    0.0000 C    0  0  0  0  0  0  0  0  0  0  0  0
    9.1148  -16.6559    0.0000 C    0  0  0  0  0  0  0  0  0  0  0  0
   11.6776  -19.7121    0.0000 P    0  0  0  0  0  0  0  0  0  0  0  0
   10.8813   -9.3588    0.0000 C    0  0  0  0  0  0  0  0  0  0  0  0
   12.1826   -9.1298    0.0000 C    0  0  0  0  0  0  0  0  0  0  0  0
   10.4240  -10.6061    0.0000 C    0  0  0  0  0  0  0  0  0  0  0  0
   13.0387  -10.1514    0.0000 C    0  0  0  0  0  0  0  0  0  0  0  0
   11.2719  -11.6319    0.0000 C    0  0  0  0  0  0  0  0  0  0  0  0
   12.5812  -11.3983    0.0000 C    0  0  0  0  0  0  0  0  0  0  0  0
   10.1550  -13.6695    0.0000 C    0  0  0  0  0  0  0  0  0  0  0  0
   11.1766  -12.8135    0.0000 C    0  0  0  0  0  0  0  0  0  0  0  0
   10.3843  -14.9706    0.0000 C    0  0  0  0  0  0  0  0  0  0  0  0
   12.4155  -13.2756    0.0000 C    0  0  0  0  0  0  0  0  0  0  0  0
   11.6312  -15.4281    0.0000 C    0  0  0  0  0  0  0  0  0  0  0  0
   12.6491  -14.5849    0.0000 C    0  0  0  0  0  0  0  0  0  0  0  0
   14.4583  -11.5636    0.0000 C    0  0  0  0  0  0  0  0  0  0  0  0
   14.2249  -10.2547    0.0000 C    0  0  0  0  0  0  0  0  0  0  0  0
   15.7054  -12.0215    0.0000 C    0  0  0  0  0  0  0  0  0  0  0  0
   15.2505   -9.4065    0.0000 C    0  0  0  0  0  0  0  0  0  0  0  0
   16.7314  -11.1731    0.0000 C    0  0  0  0  0  0  0  0  0  0  0  0
   16.4980   -9.8641    0.0000 C    0  0  0  0  0  0  0  0  0  0  0  0
   16.3042  -15.8426    0.0000 Rh   0  0  0  0  0  0  0  0  0  0  0  0
   13.4371  -12.4195    0.0000 P    0  0  0  0  0  0  0  0  0  0  0  0
   17.3262  -14.9915    0.0000 N    0  0  0  0  0  0  0  0  0  0  0  0
   18.3481  -14.1403    0.0000 C    0  0  0  0  0  0  0  0  0  0  0  0
   20.2384  -12.5789    0.0000 B    0  0  0  0  0  0  0  0  0  0  0  0
  1  2  1  0  0  0  0
  1  3  2  0  0  0  0
  2  4  2  0  0  0  0
  3  5  1  0  0  0  0
  4  6  1  0  0  0  0
  5  6  2  0  0  0  0
  7  8  1  0  0  0  0
  7  9  2  0  0  0  0
  8 10  2  0  0  0  0
  9 11  1  0  0  0  0
 10 12  1  0  0  0  0
 11 12  2  0  0  0  0
 13 14  1  0  0  0  0
 13 15  2  0  0  0  0
 14 16  2  0  0  0  0
 15 17  1  0  0  0  0
 16 18  1  0  0  0  0
 17 18  2  0  0  0  0
 19 20  1  0  0  0  0
 19 21  2  0  0  0  0
 20 22  2  0  0  0  0
 21 23  1  0  0  0  0
 22 24  1  0  0  0  0
 23 24  2  0  0  0  0
 25 26  1  0  0  0  0
 25 27  2  0  0  0  0
 26 28  2  0  0  0  0
 27 29  1  0  0  0  0
 28 30  1  0  0  0  0
 29 30  2  0  0  0  0
 31 32  1  0  0  0  0
 31 33  2  0  0  0  0
 32 34  2  0  0  0  0
 33 35  1  0  0  0  0
 34 36  1  0  0  0  0
 35 36  2  0  0  0  0
 31 37  1  0  0  0  0
 28 37  1  0  0  0  0
 24 37  1  0  0  0  0
 38 39  1  0  0  0  0
 38 40  2  0  0  0  0
 39 41  2  0  0  0  0
 40 42  1  0  0  0  0
 41 43  1  0  0  0  0
 42 43  2  0  0  0  0
 44 45  1  0  0  0  0
 44 46  2  0  0  0  0
 45 47  2  0  0  0  0
 46 48  1  0  0  0  0
 47 49  1  0  0  0  0
 48 49  2  0  0  0  0
 50 51  1  0  0  0  0
 50 52  2  0  0  0  0
 51 53  2  0  0  0  0
 52 54  1  0  0  0  0
 53 55  1  0  0  0  0
 54 55  2  0  0  0  0
 50 56  1  0  0  0  0
 47 56  1  0  0  0  0
 43 56  1  0  0  0  0
 57 58  1  0  0  0  0
 57 59  2  0  0  0  0
 58 60  2  0  0  0  0
 59 61  1  0  0  0  0
 60 62  1  0  0  0  0
 61 62  2  0  0  0  0
 63 64  1  0  0  0  0
 63 65  2  0  0  0  0
 64 66  2  0  0  0  0
 65 67  1  0  0  0  0
 66 68  1  0  0  0  0
 67 68  2  0  0  0  0
 69 70  1  0  0  0  0
 69 71  2  0  0  0  0
 70 72  2  0  0  0  0
 71 73  1  0  0  0  0
 72 74  1  0  0  0  0
 73 74  2  0  0  0  0
 75 76  1  0  0  0  0
 69 76  1  0  0  0  0
 66 76  1  0  0  0  0
 62 76  1  0  0  0  0
 56 75  1  0  0  0  0
 37 75  1  0  0  0  0
 77 78  3  0  0  0  0
 75 77  1  0  0  0  0
 78 79  1  0  0  0  0
 16 79  1  0  0  0  0
 12 79  1  0  0  0  0
  5 79  1  0  0  0  0
M  END
> <NMREDATA_VERSION>
1.1

> <NMREDATA_LEVEL>
0

> <NMREDATA_SOLVENT>
DCCl3

> <NMREDATA_TEMPERATURE>
300

> <NMREDATA_FORMULA>
C73H64BNP3Rh

> <NMREDATA_SMILES>
c1ccc(cc1)[B](c1ccccc1)(c1ccccc1)C#N[Rh](P(c1ccccc1)(c1ccccc1)c1ccccc1)(P(c1ccccc1)(c1ccccc1)c1ccccc1)P(c1ccccc1)(c1ccccc1)c1ccccc1

> <NMREDATA_ASSIGNMENT>
Rh75, -98.00, 75

> <NMREDATA_1D_103Rh>
-98.00, L=Rh75

$$$$

  ACD/LABS03132411282D

 79 90  0  0  0  0  0  0  0  0  1 V2000
   24.1304  -14.0611    0.0000 C    0  0  0  0  0  0  0  0  0  0  0  0
   24.1304  -15.3911    0.0000 C    0  0  0  0  0  0  0  0  0  0  0  0
   22.9785  -13.3961    0.0000 C    0  0  0  0  0  0  0  0  0  0  0  0
   22.9785  -16.0562    0.0000 C    0  0  0  0  0  0  0  0  0  0  0  0
   21.8267  -14.0611    0.0000 C    0  0  0  0  0  0  0  0  0  0  0  0
   21.8267  -15.3911    0.0000 C    0  0  0  0  0  0  0  0  0  0  0  0
   24.3067  -11.0326    0.0000 C    0  0  0  0  0  0  0  0  0  0  0  0
   24.3067  -12.3626    0.0000 C    0  0  0  0  0  0  0  0  0  0  0  0
   23.1548  -10.3676    0.0000 C    0  0  0  0  0  0  0  0  0  0  0  0
   23.1548  -13.0276    0.0000 C    0  0  0  0  0  0  0  0  0  0  0  0
   22.0030  -11.0326    0.0000 C    0  0  0  0  0  0  0  0  0  0  0  0
   22.0030  -12.3626    0.0000 C    0  0  0  0  0  0  0  0  0  0  0  0
   21.5185   -9.3020    0.0000 C    0  0  0  0  0  0  0  0  0  0  0  0
   21.5185  -10.6320    0.0000 C    0  0  0  0  0  0  0  0  0  0  0  0
   20.3666   -8.6370    0.0000 C    0  0  0  0  0  0  0  0  0  0  0  0
   20.3666  -11.2970    0.0000 C    0  0  0  0  0  0  0  0  0  0  0  0
   19.2148   -9.3020    0.0000 C    0  0  0  0  0  0  0  0  0  0  0  0
   19.2148  -10.6320    0.0000 C    0  0  0  0  0  0  0  0  0  0  0  0
   20.6039  -14.8659    0.0000 C    0  0  0  0  0  0  0  0  0  0  0  0
   20.6043  -16.1965    0.0000 C    0  0  0  0  0  0  0  0  0  0  0  0
   19.4515  -14.1999    0.0000 C    0  0  0  0  0  0  0  0  0  0  0  0
   19.4522  -16.8617    0.0000 C    0  0  0  0  0  0  0  0  0  0  0  0
   18.2994  -14.8650    0.0000 C    0  0  0  0  0  0  0  0  0  0  0  0
   18.3000  -16.1960    0.0000 C    0  0  0  0  0  0  0  0  0  0  0  0
   19.8090  -19.1644    0.0000 C    0  0  0  0  0  0  0  0  0  0  0  0
   19.1441  -18.0127    0.0000 C    0  0  0  0  0  0  0  0  0  0  0  0
   19.1432  -20.3172    0.0000 C    0  0  0  0  0  0  0  0  0  0  0  0
   17.8129  -18.0130    0.0000 C    0  0  0  0  0  0  0  0  0  0  0  0
   17.8200  -20.3128    0.0000 C    0  0  0  0  0  0  0  0  0  0  0  0
   17.1550  -19.1611    0.0000 C    0  0  0  0  0  0  0  0  0  0  0  0
   15.9962  -17.5262    0.0000 C    0  0  0  0  0  0  0  0  0  0  0  0
   15.9962  -18.8570    0.0000 C    0  0  0  0  0  0  0  0  0  0  0  0
   14.8434  -16.8603    0.0000 C    0  0  0  0  0  0  0  0  0  0  0  0
   14.8525  -19.5173    0.0000 C    0  0  0  0  0  0  0  0  0  0  0  0
   13.6997  -17.5207    0.0000 C    0  0  0  0  0  0  0  0  0  0  0  0
   13.7003  -18.8517    0.0000 C    0  0  0  0  0  0  0  0  0  0  0  0
   17.1479  -16.8612    0.0000 P    0  0  0  0  0  0  0  0  0  0  0  0
    8.6173  -22.2676    0.0000 C    0  0  0  0  0  0  0  0  0  0  0  0
    9.8642  -22.7251    0.0000 C    0  0  0  0  0  0  0  0  0  0  0  0
    8.3833  -20.9585    0.0000 C    0  0  0  0  0  0  0  0  0  0  0  0
   10.8854  -21.8692    0.0000 C    0  0  0  0  0  0  0  0  0  0  0  0
    9.4049  -20.1024    0.0000 C    0  0  0  0  0  0  0  0  0  0  0  0
   10.6520  -20.5603    0.0000 C    0  0  0  0  0  0  0  0  0  0  0  0
   14.6907  -21.5255    0.0000 C    0  0  0  0  0  0  0  0  0  0  0  0
   13.8352  -20.5041    0.0000 C    0  0  0  0  0  0  0  0  0  0  0  0
   14.2334  -22.7728    0.0000 C    0  0  0  0  0  0  0  0  0  0  0  0
   12.5291  -20.7256    0.0000 C    0  0  0  0  0  0  0  0  0  0  0  0
   12.9200  -22.9985    0.0000 C    0  0  0  0  0  0  0  0  0  0  0  0
   12.0762  -21.9805    0.0000 C    0  0  0  0  0  0  0  0  0  0  0  0
   10.8221  -18.6906    0.0000 C    0  0  0  0  0  0  0  0  0  0  0  0
   11.2794  -17.4434    0.0000 C    0  0  0  0  0  0  0  0  0  0  0  0
    9.5084  -18.9166    0.0000 C    0  0  0  0  0  0  0  0  0  0  0  0
   10.4282  -16.4302    0.0000 C    0  0  0  0  0  0  0  0  0  0  0  0
    8.6616  -17.9110    0.0000 C    0  0  0  0  0  0  0  0  0  0  0  0
    9.1148  -16.6559    0.0000 C    0  0  0  0  0  0  0  0  0  0  0  0
   11.6776  -19.7121    0.0000 P    0  0  0  0  0  0  0  0  0  0  0  0
   10.8813   -9.3588    0.0000 C    0  0  0  0  0  0  0  0  0  0  0  0
   12.1826   -9.1298    0.0000 C    0  0  0  0  0  0  0  0  0  0  0  0
   10.4240  -10.6061    0.0000 C    0  0  0  0  0  0  0  0  0  0  0  0
   13.0387  -10.1514    0.0000 C    0  0  0  0  0  0  0  0  0  0  0  0
   11.2719  -11.6319    0.0000 C    0  0  0  0  0  0  0  0  0  0  0  0
   12.5812  -11.3983    0.0000 C    0  0  0  0  0  0  0  0  0  0  0  0
   10.1550  -13.6695    0.0000 C    0  0  0  0  0  0  0  0  0  0  0  0
   11.1766  -12.8135    0.0000 C    0  0  0  0  0  0  0  0  0  0  0  0
   10.3843  -14.9706    0.0000 C    0  0  0  0  0  0  0  0  0  0  0  0
   12.4155  -13.2756    0.0000 C    0  0  0  0  0  0  0  0  0  0  0  0
   11.6312  -15.4281    0.0000 C    0  0  0  0  0  0  0  0  0  0  0  0
   12.6491  -14.5849    0.0000 C    0  0  0  0  0  0  0  0  0  0  0  0
   14.4583  -11.5636    0.0000 C    0  0  0  0  0  0  0  0  0  0  0  0
   14.2249  -10.2547    0.0000 C    0  0  0  0  0  0  0  0  0  0  0  0
   15.7054  -12.0215    0.0000 C    0  0  0  0  0  0  0  0  0  0  0  0
   15.2505   -9.4065    0.0000 C    0  0  0  0  0  0  0  0  0  0  0  0
   16.7314  -11.1731    0.0000 C    0  0  0  0  0  0  0  0  0  0  0  0
   16.4980   -9.8641    0.0000 C    0  0  0  0  0  0  0  0  0  0  0  0
   16.3042  -15.8426    0.0000 Rh   0  0  0  0  0  0  0  0  0  0  0  0
   13.4371  -12.4195    0.0000 P    0  0  0  0  0  0  0  0  0  0  0  0
   17.3262  -14.9915    0.0000 N    0  0  0  0  0  0  0  0  0  0  0  0
   18.3481  -14.1403    0.0000 C    0  0  0  0  0  0  0  0  0  0  0  0
   20.2384  -12.5789    0.0000 B    0  0  0  0  0  0  0  0  0  0  0  0
  1  2  1  0  0  0  0
  1  3  2  0  0  0  0
  2  4  2  0  0  0  0
  3  5  1  0  0  0  0
  4  6  1  0  0  0  0
  5  6  2  0  0  0  0
  7  8  1  0  0  0  0
  7  9  2  0  0  0  0
  8 10  2  0  0  0  0
  9 11  1  0  0  0  0
 10 12  1  0  0  0  0
 11 12  2  0  0  0  0
 13 14  1  0  0  0  0
 13 15  2  0  0  0  0
 14 16  2  0  0  0  0
 15 17  1  0  0  0  0
 16 18  1  0  0  0  0
 17 18  2  0  0  0  0
 19 20  1  0  0  0  0
 19 21  2  0  0  0  0
 20 22  2  0  0  0  0
 21 23  1  0  0  0  0
 22 24  1  0  0  0  0
 23 24  2  0  0  0  0
 25 26  1  0  0  0  0
 25 27  2  0  0  0  0
 26 28  2  0  0  0  0
 27 29  1  0  0  0  0
 28 30  1  0  0  0  0
 29 30  2  0  0  0  0
 31 32  1  0  0  0  0
 31 33  2  0  0  0  0
 32 34  2  0  0  0  0
 33 35  1  0  0  0  0
 34 36  1  0  0  0  0
 35 36  2  0  0  0  0
 31 37  1  0  0  0  0
 28 37  1  0  0  0  0
 24 37  1  0  0  0  0
 38 39  1  0  0  0  0
 38 40  2  0  0  0  0
 39 41  2  0  0  0  0
 40 42  1  0  0  0  0
 41 43  1  0  0  0  0
 42 43  2  0  0  0  0
 44 45  1  0  0  0  0
 44 46  2  0  0  0  0
 45 47  2  0  0  0  0
 46 48  1  0  0  0  0
 47 49  1  0  0  0  0
 48 49  2  0  0  0  0
 50 51  1  0  0  0  0
 50 52  2  0  0  0  0
 51 53  2  0  0  0  0
 52 54  1  0  0  0  0
 53 55  1  0  0  0  0
 54 55  2  0  0  0  0
 50 56  1  0  0  0  0
 47 56  1  0  0  0  0
 43 56  1  0  0  0  0
 57 58  1  0  0  0  0
 57 59  2  0  0  0  0
 58 60  2  0  0  0  0
 59 61  1  0  0  0  0
 60 62  1  0  0  0  0
 61 62  2  0  0  0  0
 63 64  1  0  0  0  0
 63 65  2  0  0  0  0
 64 66  2  0  0  0  0
 65 67  1  0  0  0  0
 66 68  1  0  0  0  0
 67 68  2  0  0  0  0
 69 70  1  0  0  0  0
 69 71  2  0  0  0  0
 70 72  2  0  0  0  0
 71 73  1  0  0  0  0
 72 74  1  0  0  0  0
 73 74  2  0  0  0  0
 75 76  1  0  0  0  0
 69 76  1  0  0  0  0
 66 76  1  0  0  0  0
 62 76  1  0  0  0  0
 56 75  1  0  0  0  0
 37 75  1  0  0  0  0
 77 78  3  0  0  0  0
 75 77  1  0  0  0  0
 78 79  1  0  0  0  0
 16 79  1  0  0  0  0
 12 79  1  0  0  0  0
  5 79  1  0  0  0  0
M  END
> <NMREDATA_VERSION>
1.1

> <NMREDATA_LEVEL>
0

> <NMREDATA_SOLVENT>
DCCl3

> <NMREDATA_TEMPERATURE>
247

> <NMREDATA_FORMULA>
C73H64BNP3Rh

> <NMREDATA_SMILES>
c1ccc(cc1)[B](c1ccccc1)(c1ccccc1)C#N[Rh](P(c1ccccc1)(c1ccccc1)c1ccccc1)(P(c1ccccc1)(c1ccccc1)c1ccccc1)P(c1ccccc1)(c1ccccc1)c1ccccc1

> <NMREDATA_ASSIGNMENT>
Rh75, -145.00, 75

> <NMREDATA_1D_103Rh>
-145.00, L=Rh75

$$$$

  ACD/LABS03132411312D

 48 54  0  0  0  0  0  0  0  0  2 V2000
   16.0111  -14.3784    0.0000 C    0  0  0  0  0  0  0  0  0  0  0  0
   15.3461  -15.5302    0.0000 C    0  0  0  0  0  0  0  0  0  0  0  0
   15.3461  -13.2266    0.0000 C    0  0  0  0  0  0  0  0  0  0  0  0
   14.0161  -15.5302    0.0000 C    0  0  0  0  0  0  0  0  0  0  0  0
   14.0161  -13.2266    0.0000 C    0  0  0  0  0  0  0  0  0  0  0  0
   13.3511  -14.3784    0.0000 C    0  0  0  0  0  0  0  0  0  0  0  0
   16.8066  -18.6771    0.0000 C    0  0  0  0  0  0  0  0  0  0  0  0
   15.6547  -19.3421    0.0000 C    0  0  0  0  0  0  0  0  0  0  0  0
   16.8066  -17.3470    0.0000 C    0  0  0  0  0  0  0  0  0  0  0  0
   14.5029  -18.6771    0.0000 C    0  0  0  0  0  0  0  0  0  0  0  0
   15.6547  -16.6821    0.0000 C    0  0  0  0  0  0  0  0  0  0  0  0
   14.5029  -17.3470    0.0000 C    0  0  0  0  0  0  0  0  0  0  0  0
    9.8957  -16.0170    0.0000 C    0  0  0  0  0  0  0  0  0  0  0  0
    9.8957  -14.6870    0.0000 C    0  0  0  0  0  0  0  0  0  0  0  0
   11.0475  -16.6821    0.0000 C    0  0  0  0  0  0  0  0  0  0  0  0
   11.0475  -14.0220    0.0000 C    0  0  0  0  0  0  0  0  0  0  0  0
   12.1993  -16.0170    0.0000 C    0  0  0  0  0  0  0  0  0  0  0  0
   12.1993  -14.6870    0.0000 C    0  0  0  0  0  0  0  0  0  0  0  0
    9.2307  -17.1689    0.0000 C    0  0  0  0  0  0  0  0  0  0  0  0
    8.0789  -16.5039    0.0000 C    0  0  0  0  0  0  0  0  0  0  0  0
   10.3825  -16.5039    0.0000 C    0  0  0  0  0  0  0  0  0  0  0  0
    8.0789  -15.1739    0.0000 C    0  0  0  0  0  0  0  0  0  0  0  0
   10.3825  -15.1739    0.0000 C    0  0  0  0  0  0  0  0  0  0  0  0
    9.2307  -14.5089    0.0000 C    0  0  0  0  0  0  0  0  0  0  0  0
   11.5343  -19.4725    0.0000 C    0  0  0  0  0  0  0  0  0  0  0  0
   10.8693  -20.6243    0.0000 C    0  0  0  0  0  0  0  0  0  0  0  0
   10.8693  -18.3207    0.0000 C    0  0  0  0  0  0  0  0  0  0  0  0
    9.5393  -20.6243    0.0000 C    0  0  0  0  0  0  0  0  0  0  0  0
    9.5393  -18.3207    0.0000 C    0  0  0  0  0  0  0  0  0  0  0  0
    8.8743  -19.4725    0.0000 C    0  0  0  0  0  0  0  0  0  0  0  0
   12.8643  -14.8652    0.0000 C    0  0  0  0  0  0  0  0  0  0  0  0
   12.1993  -13.7134    0.0000 C    0  0  0  0  0  0  0  0  0  0  0  0
   14.1943  -14.8652    0.0000 C    0  0  0  0  0  0  0  0  0  0  0  0
   12.8643  -12.5616    0.0000 C    0  0  0  0  0  0  0  0  0  0  0  0
   14.8593  -13.7134    0.0000 C    0  0  0  0  0  0  0  0  0  0  0  0
   14.1943  -12.5616    0.0000 C    0  0  0  0  0  0  0  0  0  0  0  0
   12.6861  -17.8339    0.0000 Rh   0  0  0  0  0  0  0  0  0  0  0  0
   13.3511  -16.6821    0.0000 P    0  0  0  0  0  0  0  0  0  0  0  0
   11.5343  -17.1689    0.0000 P    0  0  0  0  0  0  0  0  0  0  0  0
   12.0211  -18.9857    0.0000 N    0  0  0  0  0  0  0  0  0  0  0  0
   10.6911  -18.9857    0.0000 N    0  3  0  0  0  0  0  0  0  0  0  0
    9.3611  -18.9857    0.0000 N    0  5  0  0  0  0  0  0  0  0  0  0
   13.8379  -18.4989    0.0000 N    0  0  0  0  0  0  0  0  0  0  0  0
   14.9897  -17.8339    0.0000 C    0  0  0  0  0  0  0  0  0  0  0  0
   13.8379  -19.8289    0.0000 C    0  0  0  0  0  0  0  0  0  0  0  0
   16.1416  -18.4989    0.0000 C    0  0  0  0  0  0  0  0  0  0  0  0
   14.9898  -20.4939    0.0000 C    0  0  0  0  0  0  0  0  0  0  0  0
   16.1416  -19.8289    0.0000 C    0  0  0  0  0  0  0  0  0  0  0  0
  1  2  1  0  0  0  0
  1  3  2  0  0  0  0
  2  4  2  0  0  0  0
  3  5  1  0  0  0  0
  4  6  1  0  0  0  0
  5  6  2  0  0  0  0
  7  8  1  0  0  0  0
  7  9  2  0  0  0  0
  8 10  2  0  0  0  0
  9 11  1  0  0  0  0
 10 12  1  0  0  0  0
 11 12  2  0  0  0  0
 13 14  1  0  0  0  0
 13 15  2  0  0  0  0
 14 16  2  0  0  0  0
 15 17  1  0  0  0  0
 16 18  1  0  0  0  0
 17 18  2  0  0  0  0
 19 20  1  0  0  0  0
 19 21  2  0  0  0  0
 20 22  2  0  0  0  0
 21 23  1  0  0  0  0
 22 24  1  0  0  0  0
 23 24  2  0  0  0  0
 25 26  1  0  0  0  0
 25 27  2  0  0  0  0
 26 28  2  0  0  0  0
 27 29  1  0  0  0  0
 28 30  1  0  0  0  0
 29 30  2  0  0  0  0
 31 32  1  0  0  0  0
 31 33  2  0  0  0  0
 32 34  2  0  0  0  0
 33 35  1  0  0  0  0
 34 36  1  0  0  0  0
 35 36  2  0  0  0  0
 37 38  1  0  0  0  0
 37 39  1  0  0  0  0
 31 39  1  0  0  0  0
 27 39  1  0  0  0  0
 21 39  1  0  0  0  0
 17 38  1  0  0  0  0
 12 38  1  0  0  0  0
  4 38  1  0  0  0  0
 40 41  2  0  0  0  0
 41 42  2  0  0  0  0
 37 40  1  0  0  0  0
 43 44  1  0  0  0  0
 43 45  2  0  0  0  0
 44 46  2  0  0  0  0
 45 47  1  0  0  0  0
 46 48  1  0  0  0  0
 47 48  2  0  0  0  0
 37 43  1  0  0  0  0
M  END
> <NMREDATA_VERSION>
1.1

> <NMREDATA_LEVEL>
0

> <NMREDATA_SOLVENT>
toluene-d8

> <NMREDATA_TEMPERATURE>
247

> <NMREDATA_FORMULA>
C41H40N4P2Rh

> <NMREDATA_SMILES>
N=N=N[Rh](P(c1ccccc1)(c1ccccc1)c1ccccc1)(P(c1ccccc1)(c1ccccc1)c1ccccc1)N1=CC=CC=C1

> <NMREDATA_ASSIGNMENT>
Rh37, 170.00, 37

> <NMREDATA_1D_103Rh>
170.00, L=Rh37

$$$$

  ACD/LABS03132411322D

 48 54  0  0  0  0  0  0  0  0  1 V2000
   16.0111  -14.3784    0.0000 C    0  0  0  0  0  0  0  0  0  0  0  0
   15.3461  -15.5302    0.0000 C    0  0  0  0  0  0  0  0  0  0  0  0
   15.3461  -13.2266    0.0000 C    0  0  0  0  0  0  0  0  0  0  0  0
   14.0161  -15.5302    0.0000 C    0  0  0  0  0  0  0  0  0  0  0  0
   14.0161  -13.2266    0.0000 C    0  0  0  0  0  0  0  0  0  0  0  0
   13.3511  -14.3784    0.0000 C    0  0  0  0  0  0  0  0  0  0  0  0
   16.8066  -18.6771    0.0000 C    0  0  0  0  0  0  0  0  0  0  0  0
   15.6547  -19.3421    0.0000 C    0  0  0  0  0  0  0  0  0  0  0  0
   16.8066  -17.3470    0.0000 C    0  0  0  0  0  0  0  0  0  0  0  0
   14.5029  -18.6771    0.0000 C    0  0  0  0  0  0  0  0  0  0  0  0
   15.6547  -16.6821    0.0000 C    0  0  0  0  0  0  0  0  0  0  0  0
   14.5029  -17.3470    0.0000 C    0  0  0  0  0  0  0  0  0  0  0  0
    9.8957  -16.0170    0.0000 C    0  0  0  0  0  0  0  0  0  0  0  0
    9.8957  -14.6870    0.0000 C    0  0  0  0  0  0  0  0  0  0  0  0
   11.0475  -16.6821    0.0000 C    0  0  0  0  0  0  0  0  0  0  0  0
   11.0475  -14.0220    0.0000 C    0  0  0  0  0  0  0  0  0  0  0  0
   12.1993  -16.0170    0.0000 C    0  0  0  0  0  0  0  0  0  0  0  0
   12.1993  -14.6870    0.0000 C    0  0  0  0  0  0  0  0  0  0  0  0
    9.2307  -17.1689    0.0000 C    0  0  0  0  0  0  0  0  0  0  0  0
    8.0789  -16.5039    0.0000 C    0  0  0  0  0  0  0  0  0  0  0  0
   10.3825  -16.5039    0.0000 C    0  0  0  0  0  0  0  0  0  0  0  0
    8.0789  -15.1739    0.0000 C    0  0  0  0  0  0  0  0  0  0  0  0
   10.3825  -15.1739    0.0000 C    0  0  0  0  0  0  0  0  0  0  0  0
    9.2307  -14.5089    0.0000 C    0  0  0  0  0  0  0  0  0  0  0  0
   11.5343  -19.4725    0.0000 C    0  0  0  0  0  0  0  0  0  0  0  0
   10.8693  -20.6243    0.0000 C    0  0  0  0  0  0  0  0  0  0  0  0
   10.8693  -18.3207    0.0000 C    0  0  0  0  0  0  0  0  0  0  0  0
    9.5393  -20.6243    0.0000 C    0  0  0  0  0  0  0  0  0  0  0  0
    9.5393  -18.3207    0.0000 C    0  0  0  0  0  0  0  0  0  0  0  0
    8.8743  -19.4725    0.0000 C    0  0  0  0  0  0  0  0  0  0  0  0
   12.8643  -14.8652    0.0000 C    0  0  0  0  0  0  0  0  0  0  0  0
   12.1993  -13.7134    0.0000 C    0  0  0  0  0  0  0  0  0  0  0  0
   14.1943  -14.8652    0.0000 C    0  0  0  0  0  0  0  0  0  0  0  0
   12.8643  -12.5616    0.0000 C    0  0  0  0  0  0  0  0  0  0  0  0
   14.8593  -13.7134    0.0000 C    0  0  0  0  0  0  0  0  0  0  0  0
   14.1943  -12.5616    0.0000 C    0  0  0  0  0  0  0  0  0  0  0  0
   12.6861  -17.8339    0.0000 Rh   0  0  0  0  0  0  0  0  0  0  0  0
   13.3511  -16.6821    0.0000 P    0  0  0  0  0  0  0  0  0  0  0  0
   11.5343  -17.1689    0.0000 P    0  0  0  0  0  0  0  0  0  0  0  0
   13.8379  -18.4989    0.0000 N    0  0  0  0  0  0  0  0  0  0  0  0
   14.9897  -17.8339    0.0000 C    0  0  0  0  0  0  0  0  0  0  0  0
   13.8379  -19.8289    0.0000 C    0  0  0  0  0  0  0  0  0  0  0  0
   16.1416  -18.4989    0.0000 C    0  0  0  0  0  0  0  0  0  0  0  0
   14.9898  -20.4939    0.0000 C    0  0  0  0  0  0  0  0  0  0  0  0
   16.1416  -19.8289    0.0000 C    0  0  0  0  0  0  0  0  0  0  0  0
   12.0211  -18.9857    0.0000 N    0  0  0  0  0  0  0  0  0  0  0  0
   12.6861  -20.1375    0.0000 C    0  0  0  0  0  0  0  0  0  0  0  0
   13.3511  -21.2893    0.0000 O    0  0  0  0  0  0  0  0  0  0  0  0
  1  2  1  0  0  0  0
  1  3  2  0  0  0  0
  2  4  2  0  0  0  0
  3  5  1  0  0  0  0
  4  6  1  0  0  0  0
  5  6  2  0  0  0  0
  7  8  1  0  0  0  0
  7  9  2  0  0  0  0
  8 10  2  0  0  0  0
  9 11  1  0  0  0  0
 10 12  1  0  0  0  0
 11 12  2  0  0  0  0
 13 14  1  0  0  0  0
 13 15  2  0  0  0  0
 14 16  2  0  0  0  0
 15 17  1  0  0  0  0
 16 18  1  0  0  0  0
 17 18  2  0  0  0  0
 19 20  1  0  0  0  0
 19 21  2  0  0  0  0
 20 22  2  0  0  0  0
 21 23  1  0  0  0  0
 22 24  1  0  0  0  0
 23 24  2  0  0  0  0
 25 26  1  0  0  0  0
 25 27  2  0  0  0  0
 26 28  2  0  0  0  0
 27 29  1  0  0  0  0
 28 30  1  0  0  0  0
 29 30  2  0  0  0  0
 31 32  1  0  0  0  0
 31 33  2  0  0  0  0
 32 34  2  0  0  0  0
 33 35  1  0  0  0  0
 34 36  1  0  0  0  0
 35 36  2  0  0  0  0
 37 38  1  0  0  0  0
 37 39  1  0  0  0  0
 31 39  1  0  0  0  0
 27 39  1  0  0  0  0
 21 39  1  0  0  0  0
 17 38  1  0  0  0  0
 12 38  1  0  0  0  0
  4 38  1  0  0  0  0
 40 41  1  0  0  0  0
 40 42  2  0  0  0  0
 41 43  2  0  0  0  0
 42 44  1  0  0  0  0
 43 45  1  0  0  0  0
 44 45  2  0  0  0  0
 37 40  1  0  0  0  0
 46 47  2  0  0  0  0
 47 48  2  0  0  0  0
 37 46  1  0  0  0  0
M  END
> <NMREDATA_VERSION>
1.1

> <NMREDATA_LEVEL>
0

> <NMREDATA_SOLVENT>
toluene-d8

> <NMREDATA_TEMPERATURE>
247

> <NMREDATA_FORMULA>
C42H38N2OP2Rh

> <NMREDATA_SMILES>
O=C=N[Rh](P(c1ccccc1)(c1ccccc1)c1ccccc1)(P(c1ccccc1)(c1ccccc1)c1ccccc1)N1=CC=CC=C1

> <NMREDATA_ASSIGNMENT>
Rh37, 156.00, 37

> <NMREDATA_1D_103Rh>
156.00, L=Rh37

$$$$

  ACD/LABS03132411322D

 48 54  0  0  0  0  0  0  0  0  1 V2000
   16.0111  -14.3784    0.0000 C    0  0  0  0  0  0  0  0  0  0  0  0
   15.3461  -15.5302    0.0000 C    0  0  0  0  0  0  0  0  0  0  0  0
   15.3461  -13.2266    0.0000 C    0  0  0  0  0  0  0  0  0  0  0  0
   14.0161  -15.5302    0.0000 C    0  0  0  0  0  0  0  0  0  0  0  0
   14.0161  -13.2266    0.0000 C    0  0  0  0  0  0  0  0  0  0  0  0
   13.3511  -14.3784    0.0000 C    0  0  0  0  0  0  0  0  0  0  0  0
   16.8066  -18.6771    0.0000 C    0  0  0  0  0  0  0  0  0  0  0  0
   15.6547  -19.3421    0.0000 C    0  0  0  0  0  0  0  0  0  0  0  0
   16.8066  -17.3470    0.0000 C    0  0  0  0  0  0  0  0  0  0  0  0
   14.5029  -18.6771    0.0000 C    0  0  0  0  0  0  0  0  0  0  0  0
   15.6547  -16.6821    0.0000 C    0  0  0  0  0  0  0  0  0  0  0  0
   14.5029  -17.3470    0.0000 C    0  0  0  0  0  0  0  0  0  0  0  0
    9.8957  -16.0170    0.0000 C    0  0  0  0  0  0  0  0  0  0  0  0
    9.8957  -14.6870    0.0000 C    0  0  0  0  0  0  0  0  0  0  0  0
   11.0475  -16.6821    0.0000 C    0  0  0  0  0  0  0  0  0  0  0  0
   11.0475  -14.0220    0.0000 C    0  0  0  0  0  0  0  0  0  0  0  0
   12.1993  -16.0170    0.0000 C    0  0  0  0  0  0  0  0  0  0  0  0
   12.1993  -14.6870    0.0000 C    0  0  0  0  0  0  0  0  0  0  0  0
    9.2307  -17.1689    0.0000 C    0  0  0  0  0  0  0  0  0  0  0  0
    8.0789  -16.5039    0.0000 C    0  0  0  0  0  0  0  0  0  0  0  0
   10.3825  -16.5039    0.0000 C    0  0  0  0  0  0  0  0  0  0  0  0
    8.0789  -15.1739    0.0000 C    0  0  0  0  0  0  0  0  0  0  0  0
   10.3825  -15.1739    0.0000 C    0  0  0  0  0  0  0  0  0  0  0  0
    9.2307  -14.5089    0.0000 C    0  0  0  0  0  0  0  0  0  0  0  0
   11.5343  -19.4725    0.0000 C    0  0  0  0  0  0  0  0  0  0  0  0
   10.8693  -20.6243    0.0000 C    0  0  0  0  0  0  0  0  0  0  0  0
   10.8693  -18.3207    0.0000 C    0  0  0  0  0  0  0  0  0  0  0  0
    9.5393  -20.6243    0.0000 C    0  0  0  0  0  0  0  0  0  0  0  0
    9.5393  -18.3207    0.0000 C    0  0  0  0  0  0  0  0  0  0  0  0
    8.8743  -19.4725    0.0000 C    0  0  0  0  0  0  0  0  0  0  0  0
   12.8643  -14.8652    0.0000 C    0  0  0  0  0  0  0  0  0  0  0  0
   12.1993  -13.7134    0.0000 C    0  0  0  0  0  0  0  0  0  0  0  0
   14.1943  -14.8652    0.0000 C    0  0  0  0  0  0  0  0  0  0  0  0
   12.8643  -12.5616    0.0000 C    0  0  0  0  0  0  0  0  0  0  0  0
   14.8593  -13.7134    0.0000 C    0  0  0  0  0  0  0  0  0  0  0  0
   14.1943  -12.5616    0.0000 C    0  0  0  0  0  0  0  0  0  0  0  0
   12.6861  -17.8339    0.0000 Rh   0  0  0  0  0  0  0  0  0  0  0  0
   13.3511  -16.6821    0.0000 P    0  0  0  0  0  0  0  0  0  0  0  0
   11.5343  -17.1689    0.0000 P    0  0  0  0  0  0  0  0  0  0  0  0
   13.8379  -18.4989    0.0000 N    0  0  0  0  0  0  0  0  0  0  0  0
   14.9897  -17.8339    0.0000 C    0  0  0  0  0  0  0  0  0  0  0  0
   13.8379  -19.8289    0.0000 C    0  0  0  0  0  0  0  0  0  0  0  0
   16.1416  -18.4989    0.0000 C    0  0  0  0  0  0  0  0  0  0  0  0
   14.9898  -20.4939    0.0000 C    0  0  0  0  0  0  0  0  0  0  0  0
   16.1416  -19.8289    0.0000 C    0  0  0  0  0  0  0  0  0  0  0  0
   12.0211  -18.9857    0.0000 N    0  0  0  0  0  0  0  0  0  0  0  0
   12.6861  -20.1375    0.0000 C    0  0  0  0  0  0  0  0  0  0  0  0
   13.3511  -21.2893    0.0000 S    0  0  0  0  0  0  0  0  0  0  0  0
  1  2  1  0  0  0  0
  1  3  2  0  0  0  0
  2  4  2  0  0  0  0
  3  5  1  0  0  0  0
  4  6  1  0  0  0  0
  5  6  2  0  0  0  0
  7  8  1  0  0  0  0
  7  9  2  0  0  0  0
  8 10  2  0  0  0  0
  9 11  1  0  0  0  0
 10 12  1  0  0  0  0
 11 12  2  0  0  0  0
 13 14  1  0  0  0  0
 13 15  2  0  0  0  0
 14 16  2  0  0  0  0
 15 17  1  0  0  0  0
 16 18  1  0  0  0  0
 17 18  2  0  0  0  0
 19 20  1  0  0  0  0
 19 21  2  0  0  0  0
 20 22  2  0  0  0  0
 21 23  1  0  0  0  0
 22 24  1  0  0  0  0
 23 24  2  0  0  0  0
 25 26  1  0  0  0  0
 25 27  2  0  0  0  0
 26 28  2  0  0  0  0
 27 29  1  0  0  0  0
 28 30  1  0  0  0  0
 29 30  2  0  0  0  0
 31 32  1  0  0  0  0
 31 33  2  0  0  0  0
 32 34  2  0  0  0  0
 33 35  1  0  0  0  0
 34 36  1  0  0  0  0
 35 36  2  0  0  0  0
 37 38  1  0  0  0  0
 37 39  1  0  0  0  0
 31 39  1  0  0  0  0
 27 39  1  0  0  0  0
 21 39  1  0  0  0  0
 17 38  1  0  0  0  0
 12 38  1  0  0  0  0
  4 38  1  0  0  0  0
 40 41  1  0  0  0  0
 40 42  2  0  0  0  0
 41 43  2  0  0  0  0
 42 44  1  0  0  0  0
 43 45  1  0  0  0  0
 44 45  2  0  0  0  0
 37 40  1  0  0  0  0
 46 47  2  0  0  0  0
 47 48  2  0  0  0  0
 37 46  1  0  0  0  0
M  END
> <NMREDATA_VERSION>
1.1

> <NMREDATA_LEVEL>
0

> <NMREDATA_SOLVENT>
toluene-d8

> <NMREDATA_TEMPERATURE>
247

> <NMREDATA_FORMULA>
C42H38N2P2RhS

> <NMREDATA_SMILES>
S=C=N[Rh](P(c1ccccc1)(c1ccccc1)c1ccccc1)(P(c1ccccc1)(c1ccccc1)c1ccccc1)N1=CC=CC=C1

> <NMREDATA_ASSIGNMENT>
Rh37, 147.00, 37

> <NMREDATA_1D_103Rh>
147.00, L=Rh37

$$$$

  ACD/LABS03132411332D

 50 56  0  0  0  0  0  0  0  0  1 V2000
   16.0111  -14.3784    0.0000 C    0  0  0  0  0  0  0  0  0  0  0  0
   15.3461  -15.5302    0.0000 C    0  0  0  0  0  0  0  0  0  0  0  0
   15.3461  -13.2266    0.0000 C    0  0  0  0  0  0  0  0  0  0  0  0
   14.0161  -15.5302    0.0000 C    0  0  0  0  0  0  0  0  0  0  0  0
   14.0161  -13.2266    0.0000 C    0  0  0  0  0  0  0  0  0  0  0  0
   13.3511  -14.3784    0.0000 C    0  0  0  0  0  0  0  0  0  0  0  0
   16.8066  -18.6771    0.0000 C    0  0  0  0  0  0  0  0  0  0  0  0
   15.6547  -19.3421    0.0000 C    0  0  0  0  0  0  0  0  0  0  0  0
   16.8066  -17.3470    0.0000 C    0  0  0  0  0  0  0  0  0  0  0  0
   14.5029  -18.6771    0.0000 C    0  0  0  0  0  0  0  0  0  0  0  0
   15.6547  -16.6821    0.0000 C    0  0  0  0  0  0  0  0  0  0  0  0
   14.5029  -17.3470    0.0000 C    0  0  0  0  0  0  0  0  0  0  0  0
    9.8957  -16.0170    0.0000 C    0  0  0  0  0  0  0  0  0  0  0  0
    9.8957  -14.6870    0.0000 C    0  0  0  0  0  0  0  0  0  0  0  0
   11.0475  -16.6821    0.0000 C    0  0  0  0  0  0  0  0  0  0  0  0
   11.0475  -14.0220    0.0000 C    0  0  0  0  0  0  0  0  0  0  0  0
   12.1993  -16.0170    0.0000 C    0  0  0  0  0  0  0  0  0  0  0  0
   12.1993  -14.6870    0.0000 C    0  0  0  0  0  0  0  0  0  0  0  0
    9.2307  -17.1689    0.0000 C    0  0  0  0  0  0  0  0  0  0  0  0
    8.0789  -16.5039    0.0000 C    0  0  0  0  0  0  0  0  0  0  0  0
   10.3825  -16.5039    0.0000 C    0  0  0  0  0  0  0  0  0  0  0  0
    8.0789  -15.1739    0.0000 C    0  0  0  0  0  0  0  0  0  0  0  0
   10.3825  -15.1739    0.0000 C    0  0  0  0  0  0  0  0  0  0  0  0
    9.2307  -14.5089    0.0000 C    0  0  0  0  0  0  0  0  0  0  0  0
   11.5343  -19.4725    0.0000 C    0  0  0  0  0  0  0  0  0  0  0  0
   10.8693  -20.6243    0.0000 C    0  0  0  0  0  0  0  0  0  0  0  0
   10.8693  -18.3207    0.0000 C    0  0  0  0  0  0  0  0  0  0  0  0
    9.5393  -20.6243    0.0000 C    0  0  0  0  0  0  0  0  0  0  0  0
    9.5393  -18.3207    0.0000 C    0  0  0  0  0  0  0  0  0  0  0  0
    8.8743  -19.4725    0.0000 C    0  0  0  0  0  0  0  0  0  0  0  0
   12.8643  -14.8652    0.0000 C    0  0  0  0  0  0  0  0  0  0  0  0
   12.1993  -13.7134    0.0000 C    0  0  0  0  0  0  0  0  0  0  0  0
   14.1943  -14.8652    0.0000 C    0  0  0  0  0  0  0  0  0  0  0  0
   12.8643  -12.5616    0.0000 C    0  0  0  0  0  0  0  0  0  0  0  0
   14.8593  -13.7134    0.0000 C    0  0  0  0  0  0  0  0  0  0  0  0
   14.1943  -12.5616    0.0000 C    0  0  0  0  0  0  0  0  0  0  0  0
   12.6861  -17.8339    0.0000 Rh   0  0  0  0  0  0  0  0  0  0  0  0
   13.3511  -16.6821    0.0000 P    0  0  0  0  0  0  0  0  0  0  0  0
   11.5343  -17.1689    0.0000 P    0  0  0  0  0  0  0  0  0  0  0  0
   13.8379  -18.4989    0.0000 N    0  0  0  0  0  0  0  0  0  0  0  0
   14.9897  -17.8339    0.0000 C    0  0  0  0  0  0  0  0  0  0  0  0
   13.8379  -19.8289    0.0000 C    0  0  0  0  0  0  0  0  0  0  0  0
   16.1416  -18.4989    0.0000 C    0  0  0  0  0  0  0  0  0  0  0  0
   14.9898  -20.4939    0.0000 C    0  0  0  0  0  0  0  0  0  0  0  0
   16.1416  -19.8289    0.0000 C    0  0  0  0  0  0  0  0  0  0  0  0
   12.0211  -18.9857    0.0000 N    0  0  0  0  0  0  0  0  0  0  0  0
   10.6911  -18.9857    0.0000 C    0  0  0  0  0  0  0  0  0  0  0  0
    9.3611  -18.9857    0.0000 N    0  0  0  0  0  0  0  0  0  0  0  0
   12.6861  -20.1375    0.0000 C    0  0  0  0  0  0  0  0  0  0  0  0
   13.3511  -21.2893    0.0000 N    0  0  0  0  0  0  0  0  0  0  0  0
  1  2  1  0  0  0  0
  1  3  2  0  0  0  0
  2  4  2  0  0  0  0
  3  5  1  0  0  0  0
  4  6  1  0  0  0  0
  5  6  2  0  0  0  0
  7  8  1  0  0  0  0
  7  9  2  0  0  0  0
  8 10  2  0  0  0  0
  9 11  1  0  0  0  0
 10 12  1  0  0  0  0
 11 12  2  0  0  0  0
 13 14  1  0  0  0  0
 13 15  2  0  0  0  0
 14 16  2  0  0  0  0
 15 17  1  0  0  0  0
 16 18  1  0  0  0  0
 17 18  2  0  0  0  0
 19 20  1  0  0  0  0
 19 21  2  0  0  0  0
 20 22  2  0  0  0  0
 21 23  1  0  0  0  0
 22 24  1  0  0  0  0
 23 24  2  0  0  0  0
 25 26  1  0  0  0  0
 25 27  2  0  0  0  0
 26 28  2  0  0  0  0
 27 29  1  0  0  0  0
 28 30  1  0  0  0  0
 29 30  2  0  0  0  0
 31 32  1  0  0  0  0
 31 33  2  0  0  0  0
 32 34  2  0  0  0  0
 33 35  1  0  0  0  0
 34 36  1  0  0  0  0
 35 36  2  0  0  0  0
 37 38  1  0  0  0  0
 37 39  1  0  0  0  0
 31 39  1  0  0  0  0
 27 39  1  0  0  0  0
 21 39  1  0  0  0  0
 17 38  1  0  0  0  0
 12 38  1  0  0  0  0
  4 38  1  0  0  0  0
 40 41  1  0  0  0  0
 40 42  2  0  0  0  0
 41 43  2  0  0  0  0
 42 44  1  0  0  0  0
 43 45  1  0  0  0  0
 44 45  2  0  0  0  0
 37 40  1  0  0  0  0
 37 46  1  0  0  0  0
 47 48  3  0  0  0  0
 46 47  1  0  0  0  0
 49 50  3  0  0  0  0
 46 49  1  0  0  0  0
M  END
> <NMREDATA_VERSION>
1.1

> <NMREDATA_LEVEL>
0

> <NMREDATA_SOLVENT>
toluene-d8

> <NMREDATA_TEMPERATURE>
247

> <NMREDATA_FORMULA>
C43H38N4P2Rh

> <NMREDATA_SMILES>
N#CN([Rh](P(c1ccccc1)(c1ccccc1)c1ccccc1)(P(c1ccccc1)(c1ccccc1)c1ccccc1)N1=CC=CC=C1)C#N

> <NMREDATA_ASSIGNMENT>
Rh37, 139.00, 37

> <NMREDATA_1D_103Rh>
139.00, L=Rh37

$$$$

  ACD/LABS03132411342D

 66 75  0  0  0  0  0  0  0  0  1 V2000
   17.0638  -21.6405    0.0000 C    0  0  0  0  0  0  0  0  0  0  0  0
   17.0638  -22.9705    0.0000 C    0  0  0  0  0  0  0  0  0  0  0  0
   15.9119  -20.9755    0.0000 C    0  0  0  0  0  0  0  0  0  0  0  0
   15.9119  -23.6355    0.0000 C    0  0  0  0  0  0  0  0  0  0  0  0
   14.7601  -21.6405    0.0000 C    0  0  0  0  0  0  0  0  0  0  0  0
   14.7601  -22.9705    0.0000 C    0  0  0  0  0  0  0  0  0  0  0  0
   14.4679  -22.8744    0.0000 C    0  0  0  0  0  0  0  0  0  0  0  0
   14.4679  -24.2044    0.0000 C    0  0  0  0  0  0  0  0  0  0  0  0
   13.3160  -22.2094    0.0000 C    0  0  0  0  0  0  0  0  0  0  0  0
   13.3160  -24.8694    0.0000 C    0  0  0  0  0  0  0  0  0  0  0  0
   12.1642  -22.8744    0.0000 C    0  0  0  0  0  0  0  0  0  0  0  0
   12.1642  -24.2044    0.0000 C    0  0  0  0  0  0  0  0  0  0  0  0
   11.4233  -22.8904    0.0000 C    0  0  0  0  0  0  0  0  0  0  0  0
   11.4233  -24.2204    0.0000 C    0  0  0  0  0  0  0  0  0  0  0  0
   10.2714  -22.2254    0.0000 C    0  0  0  0  0  0  0  0  0  0  0  0
   10.2714  -24.8854    0.0000 C    0  0  0  0  0  0  0  0  0  0  0  0
    9.1196  -22.8904    0.0000 C    0  0  0  0  0  0  0  0  0  0  0  0
    9.1196  -24.2204    0.0000 C    0  0  0  0  0  0  0  0  0  0  0  0
   16.0111  -14.3784    0.0000 C    0  0  0  0  0  0  0  0  0  0  0  0
   15.3461  -15.5302    0.0000 C    0  0  0  0  0  0  0  0  0  0  0  0
   15.3461  -13.2266    0.0000 C    0  0  0  0  0  0  0  0  0  0  0  0
   14.0161  -15.5302    0.0000 C    0  0  0  0  0  0  0  0  0  0  0  0
   14.0161  -13.2266    0.0000 C    0  0  0  0  0  0  0  0  0  0  0  0
   13.3511  -14.3784    0.0000 C    0  0  0  0  0  0  0  0  0  0  0  0
   16.8066  -18.6771    0.0000 C    0  0  0  0  0  0  0  0  0  0  0  0
   15.6547  -19.3421    0.0000 C    0  0  0  0  0  0  0  0  0  0  0  0
   16.8066  -17.3470    0.0000 C    0  0  0  0  0  0  0  0  0  0  0  0
   14.5029  -18.6771    0.0000 C    0  0  0  0  0  0  0  0  0  0  0  0
   15.6547  -16.6821    0.0000 C    0  0  0  0  0  0  0  0  0  0  0  0
   14.5029  -17.3470    0.0000 C    0  0  0  0  0  0  0  0  0  0  0  0
    9.8957  -16.0170    0.0000 C    0  0  0  0  0  0  0  0  0  0  0  0
    9.8957  -14.6870    0.0000 C    0  0  0  0  0  0  0  0  0  0  0  0
   11.0475  -16.6821    0.0000 C    0  0  0  0  0  0  0  0  0  0  0  0
   11.0475  -14.0220    0.0000 C    0  0  0  0  0  0  0  0  0  0  0  0
   12.1993  -16.0170    0.0000 C    0  0  0  0  0  0  0  0  0  0  0  0
   12.1993  -14.6870    0.0000 C    0  0  0  0  0  0  0  0  0  0  0  0
    9.2307  -17.1689    0.0000 C    0  0  0  0  0  0  0  0  0  0  0  0
    8.0789  -16.5039    0.0000 C    0  0  0  0  0  0  0  0  0  0  0  0
   10.3825  -16.5039    0.0000 C    0  0  0  0  0  0  0  0  0  0  0  0
    8.0789  -15.1739    0.0000 C    0  0  0  0  0  0  0  0  0  0  0  0
   10.3825  -15.1739    0.0000 C    0  0  0  0  0  0  0  0  0  0  0  0
    9.2307  -14.5089    0.0000 C    0  0  0  0  0  0  0  0  0  0  0  0
   11.5343  -19.4725    0.0000 C    0  0  0  0  0  0  0  0  0  0  0  0
   10.8693  -20.6243    0.0000 C    0  0  0  0  0  0  0  0  0  0  0  0
   10.8693  -18.3207    0.0000 C    0  0  0  0  0  0  0  0  0  0  0  0
    9.5393  -20.6243    0.0000 C    0  0  0  0  0  0  0  0  0  0  0  0
    9.5393  -18.3207    0.0000 C    0  0  0  0  0  0  0  0  0  0  0  0
    8.8743  -19.4725    0.0000 C    0  0  0  0  0  0  0  0  0  0  0  0
   12.8643  -14.8652    0.0000 C    0  0  0  0  0  0  0  0  0  0  0  0
   12.1993  -13.7134    0.0000 C    0  0  0  0  0  0  0  0  0  0  0  0
   14.1943  -14.8652    0.0000 C    0  0  0  0  0  0  0  0  0  0  0  0
   12.8643  -12.5616    0.0000 C    0  0  0  0  0  0  0  0  0  0  0  0
   14.8593  -13.7134    0.0000 C    0  0  0  0  0  0  0  0  0  0  0  0
   14.1943  -12.5616    0.0000 C    0  0  0  0  0  0  0  0  0  0  0  0
   12.6861  -17.8339    0.0000 Rh   0  0  0  0  0  0  0  0  0  0  0  0
   13.3511  -16.6821    0.0000 P    0  0  0  0  0  0  0  0  0  0  0  0
   11.5343  -17.1689    0.0000 P    0  0  0  0  0  0  0  0  0  0  0  0
   13.8379  -18.4989    0.0000 N    0  0  0  0  0  0  0  0  0  0  0  0
   14.9897  -17.8339    0.0000 C    0  0  0  0  0  0  0  0  0  0  0  0
   13.8379  -19.8289    0.0000 C    0  0  0  0  0  0  0  0  0  0  0  0
   16.1416  -18.4989    0.0000 C    0  0  0  0  0  0  0  0  0  0  0  0
   14.9898  -20.4939    0.0000 C    0  0  0  0  0  0  0  0  0  0  0  0
   16.1416  -19.8289    0.0000 C    0  0  0  0  0  0  0  0  0  0  0  0
   12.0211  -18.9857    0.0000 N    0  0  0  0  0  0  0  0  0  0  0  0
   11.3561  -20.1375    0.0000 C    0  0  0  0  0  0  0  0  0  0  0  0
   12.1463  -21.2960    0.0000 B    0  0  0  0  0  0  0  0  0  0  0  0
  1  2  1  0  0  0  0
  1  3  2  0  0  0  0
  2  4  2  0  0  0  0
  3  5  1  0  0  0  0
  4  6  1  0  0  0  0
  5  6  2  0  0  0  0
  7  8  1  0  0  0  0
  7  9  2  0  0  0  0
  8 10  2  0  0  0  0
  9 11  1  0  0  0  0
 10 12  1  0  0  0  0
 11 12  2  0  0  0  0
 13 14  1  0  0  0  0
 13 15  2  0  0  0  0
 14 16  2  0  0  0  0
 15 17  1  0  0  0  0
 16 18  1  0  0  0  0
 17 18  2  0  0  0  0
 19 20  1  0  0  0  0
 19 21  2  0  0  0  0
 20 22  2  0  0  0  0
 21 23  1  0  0  0  0
 22 24  1  0  0  0  0
 23 24  2  0  0  0  0
 25 26  1  0  0  0  0
 25 27  2  0  0  0  0
 26 28  2  0  0  0  0
 27 29  1  0  0  0  0
 28 30  1  0  0  0  0
 29 30  2  0  0  0  0
 31 32  1  0  0  0  0
 31 33  2  0  0  0  0
 32 34  2  0  0  0  0
 33 35  1  0  0  0  0
 34 36  1  0  0  0  0
 35 36  2  0  0  0  0
 37 38  1  0  0  0  0
 37 39  2  0  0  0  0
 38 40  2  0  0  0  0
 39 41  1  0  0  0  0
 40 42  1  0  0  0  0
 41 42  2  0  0  0  0
 43 44  1  0  0  0  0
 43 45  2  0  0  0  0
 44 46  2  0  0  0  0
 45 47  1  0  0  0  0
 46 48  1  0  0  0  0
 47 48  2  0  0  0  0
 49 50  1  0  0  0  0
 49 51  2  0  0  0  0
 50 52  2  0  0  0  0
 51 53  1  0  0  0  0
 52 54  1  0  0  0  0
 53 54  2  0  0  0  0
 55 56  1  0  0  0  0
 55 57  1  0  0  0  0
 49 57  1  0  0  0  0
 45 57  1  0  0  0  0
 39 57  1  0  0  0  0
 35 56  1  0  0  0  0
 30 56  1  0  0  0  0
 22 56  1  0  0  0  0
 58 59  1  0  0  0  0
 58 60  2  0  0  0  0
 59 61  2  0  0  0  0
 60 62  1  0  0  0  0
 61 63  1  0  0  0  0
 62 63  2  0  0  0  0
 55 58  1  0  0  0  0
 64 65  3  0  0  0  0
 55 64  1  0  0  0  0
 65 66  1  0  0  0  0
 13 66  1  0  0  0  0
  9 66  1  0  0  0  0
  5 66  1  0  0  0  0
M  END
> <NMREDATA_VERSION>
1.1

> <NMREDATA_LEVEL>
0

> <NMREDATA_SOLVENT>
toluene-d8

> <NMREDATA_TEMPERATURE>
247

> <NMREDATA_FORMULA>
C60H54BN2P2Rh

> <NMREDATA_SMILES>
c1ccc(cc1)[B](c1ccccc1)(c1ccccc1)C#N[Rh](P(c1ccccc1)(c1ccccc1)c1ccccc1)(P(c1ccccc1)(c1ccccc1)c1ccccc1)N1=CC=CC=C1

> <NMREDATA_ASSIGNMENT>
Rh55, 111.00, 55

> <NMREDATA_1D_103Rh>
111.00, L=Rh55

$$$$

  ACD/LABS03132411362D

 54 60  0  0  0  0  0  0  0  0  2 V2000
   12.3916  -15.0442    0.0000 C    0  0  0  0  0  0  0  0  0  0  0  0
   13.0566  -13.8924    0.0000 C    0  0  0  0  0  0  0  0  0  0  0  0
   13.0566  -16.1960    0.0000 C    0  0  0  0  0  0  0  0  0  0  0  0
   14.3866  -13.8924    0.0000 C    0  0  0  0  0  0  0  0  0  0  0  0
   14.3866  -16.1960    0.0000 C    0  0  0  0  0  0  0  0  0  0  0  0
   15.0516  -15.0442    0.0000 C    0  0  0  0  0  0  0  0  0  0  0  0
   10.0880  -17.3478    0.0000 C    0  0  0  0  0  0  0  0  0  0  0  0
    8.9362  -16.6828    0.0000 C    0  0  0  0  0  0  0  0  0  0  0  0
   11.2398  -16.6828    0.0000 C    0  0  0  0  0  0  0  0  0  0  0  0
    8.9362  -15.3528    0.0000 C    0  0  0  0  0  0  0  0  0  0  0  0
   11.2398  -15.3528    0.0000 C    0  0  0  0  0  0  0  0  0  0  0  0
   10.0880  -14.6878    0.0000 C    0  0  0  0  0  0  0  0  0  0  0  0
   13.5434  -18.0128    0.0000 C    0  0  0  0  0  0  0  0  0  0  0  0
   14.6952  -17.3478    0.0000 C    0  0  0  0  0  0  0  0  0  0  0  0
   13.5434  -19.3428    0.0000 C    0  0  0  0  0  0  0  0  0  0  0  0
   15.8470  -18.0128    0.0000 C    0  0  0  0  0  0  0  0  0  0  0  0
   14.6952  -20.0078    0.0000 C    0  0  0  0  0  0  0  0  0  0  0  0
   15.8470  -19.3428    0.0000 C    0  0  0  0  0  0  0  0  0  0  0  0
   10.5748  -17.8347    0.0000 N    0  0  0  0  0  0  0  0  0  0  0  0
   10.5748  -13.8447    0.0000 C    0  0  0  0  0  0  0  0  0  0  0  0
   11.7266  -14.5097    0.0000 C    0  0  0  0  0  0  0  0  0  0  0  0
    9.4230  -14.5097    0.0000 C    0  0  0  0  0  0  0  0  0  0  0  0
   11.7266  -15.8397    0.0000 C    0  0  0  0  0  0  0  0  0  0  0  0
    9.4230  -15.8397    0.0000 C    0  0  0  0  0  0  0  0  0  0  0  0
   10.5748  -16.5047    0.0000 C    0  0  0  0  0  0  0  0  0  0  0  0
   11.7266  -18.4997    0.0000 Rh   0  5  0  0  0  0  0  0  0  0  0  0
   12.8784  -19.1647    0.0000 N    0  0  0  0  0  0  0  0  0  0  0  0
   16.3339  -17.1697    0.0000 C    0  0  0  0  0  0  0  0  0  0  0  0
   16.3339  -18.4997    0.0000 C    0  0  0  0  0  0  0  0  0  0  0  0
   15.1820  -16.5047    0.0000 C    0  0  0  0  0  0  0  0  0  0  0  0
   15.1820  -19.1647    0.0000 C    0  0  0  0  0  0  0  0  0  0  0  0
   14.0302  -17.1697    0.0000 C    0  0  0  0  0  0  0  0  0  0  0  0
   14.0302  -18.4997    0.0000 C    0  0  0  0  0  0  0  0  0  0  0  0
   11.0616  -19.6515    0.0000 P    0  0  0  0  0  0  0  0  0  0  0  0
   12.3916  -17.3478    0.0000 P    0  0  0  0  0  0  0  0  0  0  0  0
    8.7580  -16.9915    0.0000 C    0  0  0  0  0  0  0  0  0  0  0  0
    9.9098  -17.6565    0.0000 C    0  0  0  0  0  0  0  0  0  0  0  0
    7.6062  -17.6565    0.0000 C    0  0  0  0  0  0  0  0  0  0  0  0
    9.9098  -18.9865    0.0000 C    0  0  0  0  0  0  0  0  0  0  0  0
    7.6062  -18.9865    0.0000 C    0  0  0  0  0  0  0  0  0  0  0  0
    8.7580  -19.6515    0.0000 C    0  0  0  0  0  0  0  0  0  0  0  0
   12.2134  -21.6465    0.0000 C    0  0  0  0  0  0  0  0  0  0  0  0
   12.2134  -20.3165    0.0000 C    0  0  0  0  0  0  0  0  0  0  0  0
   13.3652  -22.3115    0.0000 C    0  0  0  0  0  0  0  0  0  0  0  0
   13.3652  -19.6515    0.0000 C    0  0  0  0  0  0  0  0  0  0  0  0
   14.5170  -21.6465    0.0000 C    0  0  0  0  0  0  0  0  0  0  0  0
   14.5170  -20.3165    0.0000 C    0  0  0  0  0  0  0  0  0  0  0  0
   10.3966  -20.8033    0.0000 C    0  0  0  0  0  0  0  0  0  0  0  0
   11.0616  -21.9551    0.0000 C    0  0  0  0  0  0  0  0  0  0  0  0
    9.0666  -20.8033    0.0000 C    0  0  0  0  0  0  0  0  0  0  0  0
   10.3966  -23.1069    0.0000 C    0  0  0  0  0  0  0  0  0  0  0  0
    8.4016  -21.9551    0.0000 C    0  0  0  0  0  0  0  0  0  0  0  0
    9.0666  -23.1069    0.0000 C    0  0  0  0  0  0  0  0  0  0  0  0
   22.0171  -17.9790    0.0000 Li   0  3  0  0  0  0  0  0  0  0  0  0
  1  2  1  0  0  0  0
  1  3  2  0  0  0  0
  2  4  2  0  0  0  0
  3  5  1  0  0  0  0
  4  6  1  0  0  0  0
  5  6  2  0  0  0  0
  7  8  1  0  0  0  0
  7  9  2  0  0  0  0
  8 10  2  0  0  0  0
  9 11  1  0  0  0  0
 10 12  1  0  0  0  0
 11 12  2  0  0  0  0
 13 14  1  0  0  0  0
 13 15  2  0  0  0  0
 14 16  2  0  0  0  0
 15 17  1  0  0  0  0
 16 18  1  0  0  0  0
 17 18  2  0  0  0  0
 20 21  1  0  0  0  0
 20 22  2  0  0  0  0
 21 23  2  0  0  0  0
 22 24  1  0  0  0  0
 23 25  1  0  0  0  0
 24 25  2  0  0  0  0
 19 25  1  0  0  0  0
 26 27  1  0  0  0  0
 28 29  1  0  0  0  0
 28 30  2  0  0  0  0
 29 31  2  0  0  0  0
 30 32  1  0  0  0  0
 31 33  1  0  0  0  0
 32 33  2  0  0  0  0
 27 33  1  0  0  0  0
 19 26  1  0  0  0  0
 26 34  1  0  0  0  0
 26 35  1  0  0  0  0
 36 37  1  0  0  0  0
 36 38  2  0  0  0  0
 37 39  2  0  0  0  0
 38 40  1  0  0  0  0
 39 41  1  0  0  0  0
 40 41  2  0  0  0  0
 34 39  1  0  0  0  0
 42 43  1  0  0  0  0
 42 44  2  0  0  0  0
 43 45  2  0  0  0  0
 44 46  1  0  0  0  0
 45 47  1  0  0  0  0
 46 47  2  0  0  0  0
 34 43  1  0  0  0  0
 48 49  1  0  0  0  0
 48 50  2  0  0  0  0
 49 51  2  0  0  0  0
 50 52  1  0  0  0  0
 51 53  1  0  0  0  0
 52 53  2  0  0  0  0
 34 48  1  0  0  0  0
 13 35  1  0  0  0  0
  9 35  1  0  0  0  0
  3 35  1  0  0  0  0
M  END
> <NMREDATA_VERSION>
1.1

> <NMREDATA_LEVEL>
0

> <NMREDATA_SOLVENT>
THF

> <NMREDATA_TEMPERATURE>
203

> <NMREDATA_FORMULA>
C48H45LiN2P2Rh

> <NMREDATA_SMILES>
c1ccc(cc1)N[Rh](P(c1ccccc1)(c1ccccc1)c1ccccc1)(P(c1ccccc1)(c1ccccc1)c1ccccc1)Nc1ccccc1.[LiH]

> <NMREDATA_ASSIGNMENT>
Rh26, 225.00, 26

> <NMREDATA_1D_103Rh>
225.00, L=Rh26

$$$$

  ACD/LABS03132411462D

 61 69  0  0  0  0  0  0  0  0  1 V2000
   10.6923  -20.7693    0.0000 C    0  0  0  0  0  0  0  0  0  0  0  0
    9.6754  -19.9127    0.0000 C    0  0  0  0  0  0  0  0  0  0  0  0
   11.9371  -20.3171    0.0000 C    0  0  0  0  0  0  0  0  0  0  0  0
    9.9152  -18.6071    0.0000 C    0  0  0  0  0  0  0  0  0  0  0  0
   12.1764  -19.0113    0.0000 C    0  0  0  0  0  0  0  0  0  0  0  0
   11.1641  -18.1627    0.0000 C    0  0  0  0  0  0  0  0  0  0  0  0
   13.4650  -22.0771    0.0000 C    0  0  0  0  0  0  0  0  0  0  0  0
   14.7785  -22.3123    0.0000 C    0  0  0  0  0  0  0  0  0  0  0  0
   13.0206  -20.8283    0.0000 C    0  0  0  0  0  0  0  0  0  0  0  0
   15.6354  -21.2952    0.0000 C    0  0  0  0  0  0  0  0  0  0  0  0
   13.8775  -19.8111    0.0000 C    0  0  0  0  0  0  0  0  0  0  0  0
   15.1911  -20.0464    0.0000 C    0  0  0  0  0  0  0  0  0  0  0  0
   16.8346  -18.9028    0.0000 C    0  0  0  0  0  0  0  0  0  0  0  0
   15.5253  -19.1364    0.0000 C    0  0  0  0  0  0  0  0  0  0  0  0
   17.2922  -17.6556    0.0000 C    0  0  0  0  0  0  0  0  0  0  0  0
   14.6694  -18.1146    0.0000 C    0  0  0  0  0  0  0  0  0  0  0  0
   16.4359  -16.6340    0.0000 C    0  0  0  0  0  0  0  0  0  0  0  0
   15.1270  -16.8674    0.0000 C    0  0  0  0  0  0  0  0  0  0  0  0
   13.4287  -18.5548    0.0000 P    0  0  0  0  0  0  0  0  0  0  0  0
    5.4864  -15.6543    0.0000 C    0  0  0  0  0  0  0  0  0  0  0  0
    5.2572  -14.3526    0.0000 C    0  0  0  0  0  0  0  0  0  0  0  0
    6.7336  -16.1120    0.0000 C    0  0  0  0  0  0  0  0  0  0  0  0
    6.2787  -13.4969    0.0000 C    0  0  0  0  0  0  0  0  0  0  0  0
    7.7593  -15.2635    0.0000 C    0  0  0  0  0  0  0  0  0  0  0  0
    7.5259  -13.9545    0.0000 C    0  0  0  0  0  0  0  0  0  0  0  0
    8.9478  -19.2375    0.0000 C    0  0  0  0  0  0  0  0  0  0  0  0
    7.6338  -19.4631    0.0000 C    0  0  0  0  0  0  0  0  0  0  0  0
    9.4052  -17.9899    0.0000 C    0  0  0  0  0  0  0  0  0  0  0  0
    6.7825  -18.4493    0.0000 C    0  0  0  0  0  0  0  0  0  0  0  0
    8.5495  -16.9685    0.0000 C    0  0  0  0  0  0  0  0  0  0  0  0
    7.2358  -17.1945    0.0000 C    0  0  0  0  0  0  0  0  0  0  0  0
    9.0658  -12.2048    0.0000 C    0  0  0  0  0  0  0  0  0  0  0  0
    8.6084  -13.4524    0.0000 C    0  0  0  0  0  0  0  0  0  0  0  0
   10.3751  -11.9712    0.0000 C    0  0  0  0  0  0  0  0  0  0  0  0
    9.4645  -14.4736    0.0000 C    0  0  0  0  0  0  0  0  0  0  0  0
   11.2314  -12.9928    0.0000 C    0  0  0  0  0  0  0  0  0  0  0  0
   10.7738  -14.2400    0.0000 C    0  0  0  0  0  0  0  0  0  0  0  0
   13.1998  -17.2534    0.0000 Rh   0  0  0  0  0  0  0  0  0  0  0  0
    9.0069  -15.7208    0.0000 P    0  0  0  0  0  0  0  0  0  0  0  0
   18.2843  -18.8238    0.0000 N    0  0  0  0  0  0  0  0  0  0  0  0
   19.6137  -18.7319    0.0000 C    0  0  0  0  0  0  0  0  0  0  0  0
   17.9597  -20.1070    0.0000 N    0  0  0  0  0  0  0  0  0  0  0  0
   20.1090  -19.9619    0.0000 C    0  0  0  0  0  0  0  0  0  0  0  0
   19.0871  -20.8179    0.0000 C    0  0  0  0  0  0  0  0  0  0  0  0
   20.3126  -17.6012    0.0000 C    0  0  0  0  0  0  0  0  0  0  0  0
   19.1787  -22.1475    0.0000 C    0  0  0  0  0  0  0  0  0  0  0  0
   14.4262  -12.6739    0.0000 N    0  0  0  0  0  0  0  0  0  0  0  0
   15.3463  -11.7128    0.0000 C    0  0  0  0  0  0  0  0  0  0  0  0
   13.2237  -12.0985    0.0000 N    0  0  0  0  0  0  0  0  0  0  0  0
   14.7119  -10.5429    0.0000 C    0  0  0  0  0  0  0  0  0  0  0  0
   13.4025  -10.7765    0.0000 C    0  0  0  0  0  0  0  0  0  0  0  0
   16.6607  -11.8961    0.0000 C    0  0  0  0  0  0  0  0  0  0  0  0
   12.4413   -9.8570    0.0000 C    0  0  0  0  0  0  0  0  0  0  0  0
   15.4166  -15.4001    0.0000 B    0  0  0  0  0  0  0  0  0  0  0  0
   16.4378  -14.5440    0.0000 N    0  0  0  0  0  0  0  0  0  0  0  0
   16.3506  -13.2219    0.0000 C    0  0  0  0  0  0  0  0  0  0  0  0
   17.7333  -14.8716    0.0000 N    0  0  0  0  0  0  0  0  0  0  0  0
   17.5885  -12.7227    0.0000 C    0  0  0  0  0  0  0  0  0  0  0  0
   18.4366  -13.7485    0.0000 C    0  0  0  0  0  0  0  0  0  0  0  0
   15.2232  -12.5111    0.0000 C    0  0  0  0  0  0  0  0  0  0  0  0
   19.7662  -13.6569    0.0000 C    0  0  0  0  0  0  0  0  0  0  0  0
  1  2  1  0  0  0  0
  1  3  2  0  0  0  0
  2  4  2  0  0  0  0
  3  5  1  0  0  0  0
  4  6  1  0  0  0  0
  5  6  2  0  0  0  0
  7  8  1  0  0  0  0
  7  9  2  0  0  0  0
  8 10  2  0  0  0  0
  9 11  1  0  0  0  0
 10 12  1  0  0  0  0
 11 12  2  0  0  0  0
 13 14  1  0  0  0  0
 13 15  2  0  0  0  0
 14 16  2  0  0  0  0
 15 17  1  0  0  0  0
 16 18  1  0  0  0  0
 17 18  2  0  0  0  0
 16 19  1  0  0  0  0
 11 19  1  0  0  0  0
  5 19  1  0  0  0  0
 20 21  1  0  0  0  0
 20 22  2  0  0  0  0
 21 23  2  0  0  0  0
 22 24  1  0  0  0  0
 23 25  1  0  0  0  0
 24 25  2  0  0  0  0
 26 27  1  0  0  0  0
 26 28  2  0  0  0  0
 27 29  2  0  0  0  0
 28 30  1  0  0  0  0
 29 31  1  0  0  0  0
 30 31  2  0  0  0  0
 32 33  1  0  0  0  0
 32 34  2  0  0  0  0
 33 35  2  0  0  0  0
 34 36  1  0  0  0  0
 35 37  1  0  0  0  0
 36 37  2  0  0  0  0
 38 39  1  0  0  0  0
 35 39  1  0  0  0  0
 30 39  1  0  0  0  0
 24 39  1  0  0  0  0
 19 38  1  0  0  0  0
 40 41  1  0  0  0  0
 40 42  1  0  0  0  0
 41 43  2  0  0  0  0
 42 44  2  0  0  0  0
 43 44  1  0  0  0  0
 41 45  1  0  0  0  0
 44 46  1  0  0  0  0
 47 48  1  0  0  0  0
 47 49  1  0  0  0  0
 48 50  2  0  0  0  0
 49 51  2  0  0  0  0
 50 51  1  0  0  0  0
 48 52  1  0  0  0  0
 51 53  1  0  0  0  0
 55 56  1  0  0  0  0
 55 57  1  0  0  0  0
 56 58  2  0  0  0  0
 57 59  2  0  0  0  0
 58 59  1  0  0  0  0
 54 55  1  0  0  0  0
 56 60  1  0  0  0  0
 59 61  1  0  0  0  0
 47 54  1  0  0  0  0
 40 54  1  0  0  0  0
 38 54  1  0  0  0  0
M  END
> <NMREDATA_VERSION>
1.1

> <NMREDATA_LEVEL>
0

> <NMREDATA_SOLVENT>
CD2Cl2

> <NMREDATA_TEMPERATURE>
300

> <NMREDATA_FORMULA>
C51H53BN6P2Rh

> <NMREDATA_SMILES>
Cc1nn(c(c1)C)[B]([Rh](P(c1ccccc1)(c1ccccc1)c1ccccc1)P(c1ccccc1)(c1ccccc1)c1ccccc1)(n1nc(cc1C)C)n1nc(cc1C)C

> <NMREDATA_ASSIGNMENT>
Rh38, 329.00, 38

> <NMREDATA_1D_103Rh>
329.00, L=Rh38

$$$$

  ACD/LABS03132411472D

 67 75  0  0  0  0  0  0  0  0  1 V2000
   10.6923  -20.7693    0.0000 C    0  0  0  0  0  0  0  0  0  0  0  0
    9.6754  -19.9127    0.0000 C    0  0  0  0  0  0  0  0  0  0  0  0
   11.9371  -20.3171    0.0000 C    0  0  0  0  0  0  0  0  0  0  0  0
    9.9152  -18.6071    0.0000 C    0  0  0  0  0  0  0  0  0  0  0  0
   12.1764  -19.0113    0.0000 C    0  0  0  0  0  0  0  0  0  0  0  0
   11.1641  -18.1627    0.0000 C    0  0  0  0  0  0  0  0  0  0  0  0
   13.4650  -22.0771    0.0000 C    0  0  0  0  0  0  0  0  0  0  0  0
   14.7785  -22.3123    0.0000 C    0  0  0  0  0  0  0  0  0  0  0  0
   13.0206  -20.8283    0.0000 C    0  0  0  0  0  0  0  0  0  0  0  0
   15.6354  -21.2952    0.0000 C    0  0  0  0  0  0  0  0  0  0  0  0
   13.8775  -19.8111    0.0000 C    0  0  0  0  0  0  0  0  0  0  0  0
   15.1911  -20.0464    0.0000 C    0  0  0  0  0  0  0  0  0  0  0  0
   16.8346  -18.9028    0.0000 C    0  0  0  0  0  0  0  0  0  0  0  0
   15.5253  -19.1364    0.0000 C    0  0  0  0  0  0  0  0  0  0  0  0
   17.2922  -17.6556    0.0000 C    0  0  0  0  0  0  0  0  0  0  0  0
   14.6694  -18.1146    0.0000 C    0  0  0  0  0  0  0  0  0  0  0  0
   16.4359  -16.6340    0.0000 C    0  0  0  0  0  0  0  0  0  0  0  0
   15.1270  -16.8674    0.0000 C    0  0  0  0  0  0  0  0  0  0  0  0
   13.4287  -18.5548    0.0000 P    0  0  0  0  0  0  0  0  0  0  0  0
    5.4864  -15.6543    0.0000 C    0  0  0  0  0  0  0  0  0  0  0  0
    5.2572  -14.3526    0.0000 C    0  0  0  0  0  0  0  0  0  0  0  0
    6.7336  -16.1120    0.0000 C    0  0  0  0  0  0  0  0  0  0  0  0
    6.2787  -13.4969    0.0000 C    0  0  0  0  0  0  0  0  0  0  0  0
    7.7593  -15.2635    0.0000 C    0  0  0  0  0  0  0  0  0  0  0  0
    7.5259  -13.9545    0.0000 C    0  0  0  0  0  0  0  0  0  0  0  0
    8.9478  -19.2375    0.0000 C    0  0  0  0  0  0  0  0  0  0  0  0
    7.6338  -19.4631    0.0000 C    0  0  0  0  0  0  0  0  0  0  0  0
    9.4052  -17.9899    0.0000 C    0  0  0  0  0  0  0  0  0  0  0  0
    6.7825  -18.4493    0.0000 C    0  0  0  0  0  0  0  0  0  0  0  0
    8.5495  -16.9685    0.0000 C    0  0  0  0  0  0  0  0  0  0  0  0
    7.2358  -17.1945    0.0000 C    0  0  0  0  0  0  0  0  0  0  0  0
    9.0658  -12.2048    0.0000 C    0  0  0  0  0  0  0  0  0  0  0  0
    8.6084  -13.4524    0.0000 C    0  0  0  0  0  0  0  0  0  0  0  0
   10.3751  -11.9712    0.0000 C    0  0  0  0  0  0  0  0  0  0  0  0
    9.4645  -14.4736    0.0000 C    0  0  0  0  0  0  0  0  0  0  0  0
   11.2314  -12.9928    0.0000 C    0  0  0  0  0  0  0  0  0  0  0  0
   10.7738  -14.2400    0.0000 C    0  0  0  0  0  0  0  0  0  0  0  0
   13.1998  -17.2534    0.0000 Rh   0  0  0  0  0  0  0  0  0  0  0  0
    9.0069  -15.7208    0.0000 P    0  0  0  0  0  0  0  0  0  0  0  0
   18.2843  -18.8238    0.0000 N    0  0  0  0  0  0  0  0  0  0  0  0
   19.6137  -18.7319    0.0000 C    0  0  0  0  0  0  0  0  0  0  0  0
   17.9597  -20.1070    0.0000 N    0  0  0  0  0  0  0  0  0  0  0  0
   20.1090  -19.9619    0.0000 C    0  0  0  0  0  0  0  0  0  0  0  0
   19.0871  -20.8179    0.0000 C    0  0  0  0  0  0  0  0  0  0  0  0
   20.3126  -17.6012    0.0000 C    0  0  0  0  0  0  0  0  0  0  0  0
   19.1787  -22.1475    0.0000 C    0  0  0  0  0  0  0  0  0  0  0  0
   14.4262  -12.6739    0.0000 N    0  0  0  0  0  0  0  0  0  0  0  0
   15.3463  -11.7128    0.0000 C    0  0  0  0  0  0  0  0  0  0  0  0
   13.2237  -12.0985    0.0000 N    0  0  0  0  0  0  0  0  0  0  0  0
   14.7119  -10.5429    0.0000 C    0  0  0  0  0  0  0  0  0  0  0  0
   13.4025  -10.7765    0.0000 C    0  0  0  0  0  0  0  0  0  0  0  0
   16.6607  -11.8961    0.0000 C    0  0  0  0  0  0  0  0  0  0  0  0
   12.4413   -9.8570    0.0000 C    0  0  0  0  0  0  0  0  0  0  0  0
   15.4166  -15.4001    0.0000 B    0  0  0  0  0  0  0  0  0  0  0  0
   16.4378  -14.5440    0.0000 N    0  0  0  0  0  0  0  0  0  0  0  0
   16.3506  -13.2219    0.0000 C    0  0  0  0  0  0  0  0  0  0  0  0
   17.7333  -14.8716    0.0000 N    0  0  0  0  0  0  0  0  0  0  0  0
   17.5885  -12.7227    0.0000 C    0  0  0  0  0  0  0  0  0  0  0  0
   18.4366  -13.7485    0.0000 C    0  0  0  0  0  0  0  0  0  0  0  0
   15.2232  -12.5111    0.0000 C    0  0  0  0  0  0  0  0  0  0  0  0
   19.7662  -13.6569    0.0000 C    0  0  0  0  0  0  0  0  0  0  0  0
   10.8002  -10.9445    0.0000 F    0  0  0  0  0  0  0  0  0  0  0  0
    4.1342  -14.0211    0.0000 F    0  0  0  0  0  0  0  0  0  0  0  0
    7.1628  -20.7672    0.0000 F    0  0  0  0  0  0  0  0  0  0  0  0
    8.7171  -20.3025    0.0000 F    0  0  0  0  0  0  0  0  0  0  0  0
   15.5754  -23.2990    0.0000 F    0  0  0  0  0  0  0  0  0  0  0  0
   18.3155  -17.2419    0.0000 F    0  0  0  0  0  0  0  0  0  0  0  0
  1  2  1  0  0  0  0
  1  3  2  0  0  0  0
  2  4  2  0  0  0  0
  3  5  1  0  0  0  0
  4  6  1  0  0  0  0
  5  6  2  0  0  0  0
  7  8  1  0  0  0  0
  7  9  2  0  0  0  0
  8 10  2  0  0  0  0
  9 11  1  0  0  0  0
 10 12  1  0  0  0  0
 11 12  2  0  0  0  0
 13 14  1  0  0  0  0
 13 15  2  0  0  0  0
 14 16  2  0  0  0  0
 15 17  1  0  0  0  0
 16 18  1  0  0  0  0
 17 18  2  0  0  0  0
 16 19  1  0  0  0  0
 11 19  1  0  0  0  0
  5 19  1  0  0  0  0
 20 21  1  0  0  0  0
 20 22  2  0  0  0  0
 21 23  2  0  0  0  0
 22 24  1  0  0  0  0
 23 25  1  0  0  0  0
 24 25  2  0  0  0  0
 26 27  1  0  0  0  0
 26 28  2  0  0  0  0
 27 29  2  0  0  0  0
 28 30  1  0  0  0  0
 29 31  1  0  0  0  0
 30 31  2  0  0  0  0
 32 33  1  0  0  0  0
 32 34  2  0  0  0  0
 33 35  2  0  0  0  0
 34 36  1  0  0  0  0
 35 37  1  0  0  0  0
 36 37  2  0  0  0  0
 38 39  1  0  0  0  0
 35 39  1  0  0  0  0
 30 39  1  0  0  0  0
 24 39  1  0  0  0  0
 19 38  1  0  0  0  0
 40 41  1  0  0  0  0
 40 42  1  0  0  0  0
 41 43  2  0  0  0  0
 42 44  2  0  0  0  0
 43 44  1  0  0  0  0
 41 45  1  0  0  0  0
 44 46  1  0  0  0  0
 47 48  1  0  0  0  0
 47 49  1  0  0  0  0
 48 50  2  0  0  0  0
 49 51  2  0  0  0  0
 50 51  1  0  0  0  0
 48 52  1  0  0  0  0
 51 53  1  0  0  0  0
 55 56  1  0  0  0  0
 55 57  1  0  0  0  0
 56 58  2  0  0  0  0
 57 59  2  0  0  0  0
 58 59  1  0  0  0  0
 54 55  1  0  0  0  0
 56 60  1  0  0  0  0
 59 61  1  0  0  0  0
 47 54  1  0  0  0  0
 40 54  1  0  0  0  0
 38 54  1  0  0  0  0
 34 62  1  0  0  0  0
 21 63  1  0  0  0  0
 27 64  1  0  0  0  0
  2 65  1  0  0  0  0
  8 66  1  0  0  0  0
 15 67  1  0  0  0  0
M  END
> <NMREDATA_VERSION>
1.1

> <NMREDATA_LEVEL>
0

> <NMREDATA_SOLVENT>
CD2Cl2

> <NMREDATA_TEMPERATURE>
300

> <NMREDATA_FORMULA>
C51H47BF6N6P2Rh

> <NMREDATA_SMILES>
Fc1ccc(cc1)P([Rh](P(c1ccc(cc1)F)(c1ccc(cc1)F)c1ccc(cc1)F)[B](n1nc(cc1C)C)(n1nc(cc1C)C)n1nc(cc1C)C)(c1ccc(cc1)F)c1ccc(cc1)F

> <NMREDATA_ASSIGNMENT>
Rh38, 313.00, 38

> <NMREDATA_1D_103Rh>
313.00, L=Rh38

$$$$

  ACD/LABS03132411492D

 46 52  0  0  0  0  0  0  0  0  1 V2000
    9.7366   -4.1903    0.0000 C    0  0  0  0  0  0  0  0  0  0  0  0
   10.8884   -3.5253    0.0000 C    0  0  0  0  0  0  0  0  0  0  0  0
    9.7366   -5.5203    0.0000 C    0  0  0  0  0  0  0  0  0  0  0  0
   12.0402   -4.1903    0.0000 C    0  0  0  0  0  0  0  0  0  0  0  0
   10.8884   -6.1853    0.0000 C    0  0  0  0  0  0  0  0  0  0  0  0
   12.0402   -5.5203    0.0000 C    0  0  0  0  0  0  0  0  0  0  0  0
    6.8984   -7.5153    0.0000 C    0  0  0  0  0  0  0  0  0  0  0  0
    7.5634   -6.3635    0.0000 C    0  0  0  0  0  0  0  0  0  0  0  0
    7.5634   -8.6671    0.0000 C    0  0  0  0  0  0  0  0  0  0  0  0
    8.8934   -6.3635    0.0000 C    0  0  0  0  0  0  0  0  0  0  0  0
    8.8934   -8.6671    0.0000 C    0  0  0  0  0  0  0  0  0  0  0  0
    9.5584   -7.5153    0.0000 C    0  0  0  0  0  0  0  0  0  0  0  0
   14.2134   -8.6671    0.0000 C    0  0  0  0  0  0  0  0  0  0  0  0
   12.8834   -8.6671    0.0000 C    0  0  0  0  0  0  0  0  0  0  0  0
   14.8784   -7.5153    0.0000 C    0  0  0  0  0  0  0  0  0  0  0  0
   12.2184   -7.5153    0.0000 C    0  0  0  0  0  0  0  0  0  0  0  0
   14.2134   -6.3635    0.0000 C    0  0  0  0  0  0  0  0  0  0  0  0
   12.8834   -6.3635    0.0000 C    0  0  0  0  0  0  0  0  0  0  0  0
    7.5634   -9.9971    0.0000 C    0  0  0  0  0  0  0  0  0  0  0  0
    6.2334   -9.9971    0.0000 C    0  0  0  0  0  0  0  0  0  0  0  0
    8.2284   -8.8453    0.0000 C    0  0  0  0  0  0  0  0  0  0  0  0
    5.5684   -8.8453    0.0000 C    0  0  0  0  0  0  0  0  0  0  0  0
    7.5634   -7.6935    0.0000 C    0  0  0  0  0  0  0  0  0  0  0  0
    6.2334   -7.6935    0.0000 C    0  0  0  0  0  0  0  0  0  0  0  0
    9.5584  -10.1753    0.0000 C    0  0  0  0  0  0  0  0  0  0  0  0
   10.7102  -10.8403    0.0000 C    0  0  0  0  0  0  0  0  0  0  0  0
    8.4066  -10.8403    0.0000 C    0  0  0  0  0  0  0  0  0  0  0  0
   10.7102  -12.1703    0.0000 C    0  0  0  0  0  0  0  0  0  0  0  0
    8.4066  -12.1703    0.0000 C    0  0  0  0  0  0  0  0  0  0  0  0
    9.5584  -12.8353    0.0000 C    0  0  0  0  0  0  0  0  0  0  0  0
    9.5584   -6.1853    0.0000 C    0  0  0  0  0  0  0  0  0  0  0  0
    8.4066   -5.5203    0.0000 C    0  0  0  0  0  0  0  0  0  0  0  0
   10.7102   -5.5203    0.0000 C    0  0  0  0  0  0  0  0  0  0  0  0
    8.4066   -4.1903    0.0000 C    0  0  0  0  0  0  0  0  0  0  0  0
   10.7102   -4.1903    0.0000 C    0  0  0  0  0  0  0  0  0  0  0  0
    9.5584   -3.5253    0.0000 C    0  0  0  0  0  0  0  0  0  0  0  0
   10.8884   -8.8453    0.0000 Rh   0  0  0  0  0  0  0  0  0  0  0  0
   10.8884   -7.5153    0.0000 P    0  0  0  0  0  0  0  0  0  0  0  0
    9.5584   -8.8453    0.0000 P    0  0  0  0  0  0  0  0  0  0  0  0
   12.2184   -8.8453    0.0000 Cl   0  0  0  0  0  0  0  0  0  0  0  0
   10.8884  -10.1753    0.0000 N    0  0  0  0  0  0  0  0  0  0  0  0
   12.0402  -10.8403    0.0000 C    0  0  0  0  0  0  0  0  0  0  0  0
    9.7366  -10.8403    0.0000 C    0  0  0  0  0  0  0  0  0  0  0  0
   12.0402  -12.1703    0.0000 C    0  0  0  0  0  0  0  0  0  0  0  0
    9.7366  -12.1703    0.0000 C    0  0  0  0  0  0  0  0  0  0  0  0
   10.8884  -12.8353    0.0000 C    0  0  0  0  0  0  0  0  0  0  0  0
  1  2  1  0  0  0  0
  1  3  2  0  0  0  0
  2  4  2  0  0  0  0
  3  5  1  0  0  0  0
  4  6  1  0  0  0  0
  5  6  2  0  0  0  0
  7  8  1  0  0  0  0
  7  9  2  0  0  0  0
  8 10  2  0  0  0  0
  9 11  1  0  0  0  0
 10 12  1  0  0  0  0
 11 12  2  0  0  0  0
 13 14  1  0  0  0  0
 13 15  2  0  0  0  0
 14 16  2  0  0  0  0
 15 17  1  0  0  0  0
 16 18  1  0  0  0  0
 17 18  2  0  0  0  0
 19 20  1  0  0  0  0
 19 21  2  0  0  0  0
 20 22  2  0  0  0  0
 21 23  1  0  0  0  0
 22 24  1  0  0  0  0
 23 24  2  0  0  0  0
 25 26  1  0  0  0  0
 25 27  2  0  0  0  0
 26 28  2  0  0  0  0
 27 29  1  0  0  0  0
 28 30  1  0  0  0  0
 29 30  2  0  0  0  0
 31 32  1  0  0  0  0
 31 33  2  0  0  0  0
 32 34  2  0  0  0  0
 33 35  1  0  0  0  0
 34 36  1  0  0  0  0
 35 36  2  0  0  0  0
 37 38  1  0  0  0  0
 37 39  1  0  0  0  0
 31 39  1  0  0  0  0
 25 39  1  0  0  0  0
 21 39  1  0  0  0  0
 16 38  1  0  0  0  0
 12 38  1  0  0  0  0
  5 38  1  0  0  0  0
 37 40  1  0  0  0  0
 41 42  1  0  0  0  0
 41 43  2  0  0  0  0
 42 44  2  0  0  0  0
 43 45  1  0  0  0  0
 44 46  1  0  0  0  0
 45 46  2  0  0  0  0
 37 41  1  0  0  0  0
M  END
> <NMREDATA_VERSION>
1.1

> <NMREDATA_LEVEL>
0

> <NMREDATA_SOLVENT>
toluene-d8

> <NMREDATA_TEMPERATURE>
247

> <NMREDATA_FORMULA>
C41H38ClNP2Rh

> <NMREDATA_SMILES>
Cl[Rh](P(c1ccccc1)(c1ccccc1)c1ccccc1)(P(c1ccccc1)(c1ccccc1)c1ccccc1)N1=CC=CC=C1

> <NMREDATA_ASSIGNMENT>
Rh37, 162.00, 37

> <NMREDATA_1D_103Rh>
162.00, L=Rh37

$$$$

  ACD/LABS03132412292D

 42 45  0  0  0  0  0  0  0  0  1 V2000
   13.7154   -7.0384    0.0000 Rh   0  0  0  0  0  0  0  0  0  0  0  0
   17.8679   -8.5922    0.0000 C    0  0  0  0  0  0  0  0  0  0  0  0
   18.7163   -9.6180    0.0000 C    0  0  0  0  0  0  0  0  0  0  0  0
   18.3255   -7.3452    0.0000 C    0  0  0  0  0  0  0  0  0  0  0  0
   20.0218   -9.3966    0.0000 C    0  0  0  0  0  0  0  0  0  0  0  0
   19.6387   -7.1194    0.0000 C    0  0  0  0  0  0  0  0  0  0  0  0
   20.4868   -8.1453    0.0000 C    0  0  0  0  0  0  0  0  0  0  0  0
   17.6729   -6.1971    0.0000 P    0  0  0  0  0  0  0  0  0  0  0  0
   16.3455   -6.1856    0.0000 C    0  0  0  0  0  0  0  0  0  0  0  0
   15.6719   -7.3421    0.0000 C    0  0  0  0  0  0  0  0  0  0  0  0
   15.6803   -5.0336    0.0000 C    0  0  0  0  0  0  0  0  0  0  0  0
   18.3432   -5.0527    0.0000 C    0  0  0  0  0  0  0  0  0  0  0  0
   17.6857   -3.8962    0.0000 C    0  0  0  0  0  0  0  0  0  0  0  0
   19.6739   -5.0520    0.0000 C    0  0  0  0  0  0  0  0  0  0  0  0
   15.1374   -9.5545    0.0000 B    0  0  0  0  0  0  0  0  0  0  0  0
   15.7947  -10.7107    0.0000 C    0  0  0  0  0  0  0  0  0  0  0  0
   17.1143  -10.7270    0.0000 C    0  0  0  0  0  0  0  0  0  0  0  0
   15.1172  -11.8596    0.0000 C    0  0  0  0  0  0  0  0  0  0  0  0
   17.7639  -11.8876    0.0000 C    0  0  0  0  0  0  0  0  0  0  0  0
   15.7668  -13.0202    0.0000 C    0  0  0  0  0  0  0  0  0  0  0  0
   17.1017  -13.0277    0.0000 C    0  0  0  0  0  0  0  0  0  0  0  0
   12.2827  -10.0358    0.0000 C    0  0  0  0  0  0  0  0  0  0  0  0
   11.6298   -8.8873    0.0000 C    0  0  0  0  0  0  0  0  0  0  0  0
   11.6123  -11.1801    0.0000 C    0  0  0  0  0  0  0  0  0  0  0  0
   10.2992   -8.8880    0.0000 C    0  0  0  0  0  0  0  0  0  0  0  0
   10.2817  -11.1808    0.0000 C    0  0  0  0  0  0  0  0  0  0  0  0
    9.6288  -10.0323    0.0000 C    0  0  0  0  0  0  0  0  0  0  0  0
   12.2698  -12.3366    0.0000 P    0  0  0  0  0  0  0  0  0  0  0  0
   11.4132  -13.3533    0.0000 C    0  0  0  0  0  0  0  0  0  0  0  0
   11.8618  -14.6094    0.0000 C    0  0  0  0  0  0  0  0  0  0  0  0
   10.1000  -13.1184    0.0000 C    0  0  0  0  0  0  0  0  0  0  0  0
   13.5972  -12.3481    0.0000 C    0  0  0  0  0  0  0  0  0  0  0  0
   14.2545  -13.5042    0.0000 C    0  0  0  0  0  0  0  0  0  0  0  0
   14.2752  -11.1992    0.0000 C    0  0  0  0  0  0  0  0  0  0  0  0
   14.5764   -6.0294    0.0000 Cl   0  0  0  0  0  0  0  0  0  0  0  0
   12.4762   -6.5766    0.0000 N    0  0  0  0  0  0  0  0  0  0  0  0
   12.2507   -5.2633    0.0000 C    0  0  0  0  0  0  0  0  0  0  0  0
   11.4506   -7.4245    0.0000 C    0  0  0  0  0  0  0  0  0  0  0  0
   11.0069   -4.7935    0.0000 C    0  0  0  0  0  0  0  0  0  0  0  0
   10.2070   -6.9551    0.0000 C    0  0  0  0  0  0  0  0  0  0  0  0
    9.9811   -5.6419    0.0000 C    0  0  0  0  0  0  0  0  0  0  0  0
    8.7341   -5.1843    0.0000 C    0  0  0  0  0  0  0  0  0  0  0  0
  2  3  1  0  0  0  0
  2  4  2  0  0  0  0
  3  5  2  0  0  0  0
  4  6  1  0  0  0  0
  5  7  1  0  0  0  0
  6  7  2  0  0  0  0
  4  8  1  0  0  0  0
  9 10  1  0  0  0  0
  9 11  1  0  0  0  0
  8  9  1  0  0  0  0
 12 13  1  0  0  0  0
 12 14  1  0  0  0  0
  8 12  1  0  0  0  0
 16 17  1  0  0  0  0
 16 18  2  0  0  0  0
 17 19  2  0  0  0  0
 18 20  1  0  0  0  0
 19 21  1  0  0  0  0
 20 21  2  0  0  0  0
 15 16  1  0  0  0  0
 22 23  1  0  0  0  0
 22 24  2  0  0  0  0
 23 25  2  0  0  0  0
 24 26  1  0  0  0  0
 25 27  1  0  0  0  0
 26 27  2  0  0  0  0
 15 22  1  0  0  0  0
 24 28  1  0  0  0  0
 29 30  1  0  0  0  0
 29 31  1  0  0  0  0
 28 29  1  0  0  0  0
 32 33  1  0  0  0  0
 32 34  1  0  0  0  0
 28 32  1  0  0  0  0
  2 15  1  0  0  0  0
  1 15  1  0  0  0  0
  1 35  1  0  0  0  0
 36 37  1  0  0  0  0
 36 38  2  0  0  0  0
 37 39  2  0  0  0  0
 38 40  1  0  0  0  0
 39 41  1  0  0  0  0
 40 41  2  0  0  0  0
  1 36  1  0  0  0  0
 41 42  1  0  0  0  0
M  END
> <NMREDATA_VERSION>
1.1

> <NMREDATA_LEVEL>
0

> <NMREDATA_SOLVENT>
DCCl3

> <NMREDATA_FORMULA>
C36H49BClNP2Rh

> <NMREDATA_SMILES>
CC1=CC=N(C=C1)[Rh]([B](c1ccccc1P(C(C)C)C(C)C)(c1ccccc1P(C(C)C)C(C)C)c1ccccc1)Cl

> <NMREDATA_ASSIGNMENT>
Rh1, 7552.00, 1

> <NMREDATA_1D_103Rh>
7552.00, L=Rh1

$$$$

  ACD/LABS03132412322D

 49 55  0  0  0  0  0  0  0  0  1 V2000
   12.1456   -5.0800    0.0000 C    0  0  0  0  0  0  0  0  0  0  0  0
   12.3793   -6.3893    0.0000 C    0  0  0  0  0  0  0  0  0  0  0  0
   13.1595   -4.2280    0.0000 C    0  0  0  0  0  0  0  0  0  0  0  0
   13.6343   -6.8424    0.0000 C    0  0  0  0  0  0  0  0  0  0  0  0
   14.4102   -4.6736    0.0000 C    0  0  0  0  0  0  0  0  0  0  0  0
   14.6439   -5.9829    0.0000 C    0  0  0  0  0  0  0  0  0  0  0  0
   17.7910   -7.4431    0.0000 C    0  0  0  0  0  0  0  0  0  0  0  0
   16.9396   -6.4294    0.0000 C    0  0  0  0  0  0  0  0  0  0  0  0
   17.3413   -8.6858    0.0000 C    0  0  0  0  0  0  0  0  0  0  0  0
   15.6228   -6.6673    0.0000 C    0  0  0  0  0  0  0  0  0  0  0  0
   16.0287   -8.9318    0.0000 C    0  0  0  0  0  0  0  0  0  0  0  0
   15.1727   -7.9102    0.0000 C    0  0  0  0  0  0  0  0  0  0  0  0
   11.5337   -7.5328    0.0000 C    0  0  0  0  0  0  0  0  0  0  0  0
   10.2938   -7.9925    0.0000 C    0  0  0  0  0  0  0  0  0  0  0  0
   12.5586   -8.3853    0.0000 C    0  0  0  0  0  0  0  0  0  0  0  0
   10.0667   -9.3018    0.0000 C    0  0  0  0  0  0  0  0  0  0  0  0
   12.3190   -9.6909    0.0000 C    0  0  0  0  0  0  0  0  0  0  0  0
   11.0865  -10.1463    0.0000 C    0  0  0  0  0  0  0  0  0  0  0  0
    8.8158   -9.1224    0.0000 C    0  0  0  0  0  0  0  0  0  0  0  0
    7.4846   -9.1229    0.0000 C    0  0  0  0  0  0  0  0  0  0  0  0
    9.4819   -7.9698    0.0000 C    0  0  0  0  0  0  0  0  0  0  0  0
    6.8193   -7.9705    0.0000 C    0  0  0  0  0  0  0  0  0  0  0  0
    8.8165   -6.8174    0.0000 C    0  0  0  0  0  0  0  0  0  0  0  0
    7.4853   -6.8179    0.0000 C    0  0  0  0  0  0  0  0  0  0  0  0
    7.2115   -9.8744    0.0000 C    0  0  0  0  0  0  0  0  0  0  0  0
    8.2289  -10.7312    0.0000 C    0  0  0  0  0  0  0  0  0  0  0  0
    5.9595  -10.3311    0.0000 C    0  0  0  0  0  0  0  0  0  0  0  0
    7.9967  -12.0325    0.0000 C    0  0  0  0  0  0  0  0  0  0  0  0
    5.7323  -11.6403    0.0000 C    0  0  0  0  0  0  0  0  0  0  0  0
    6.7447  -12.4892    0.0000 C    0  0  0  0  0  0  0  0  0  0  0  0
    9.5406  -13.7838    0.0000 C    0  0  0  0  0  0  0  0  0  0  0  0
    9.0838  -12.5318    0.0000 C    0  0  0  0  0  0  0  0  0  0  0  0
   10.8497  -14.0115    0.0000 C    0  0  0  0  0  0  0  0  0  0  0  0
    9.9289  -11.5112    0.0000 C    0  0  0  0  0  0  0  0  0  0  0  0
   11.7022  -12.9866    0.0000 C    0  0  0  0  0  0  0  0  0  0  0  0
   11.2423  -11.7463    0.0000 C    0  0  0  0  0  0  0  0  0  0  0  0
   13.8634   -9.4749    0.0000 Rh   0  0  0  0  0  0  0  0  0  0  0  0
   13.8679   -8.1517    0.0000 P    0  0  0  0  0  0  0  0  0  0  0  0
    9.4812  -10.2748    0.0000 P    0  0  0  0  0  0  0  0  0  0  0  0
   13.8763  -10.8094    0.0000 N    0  0  0  0  0  0  0  0  0  0  0  0
   12.7365  -11.4779    0.0000 C    0  0  0  0  0  0  0  0  0  0  0  0
   15.0322  -11.4632    0.0000 C    0  0  0  0  0  0  0  0  0  0  0  0
   12.7445  -12.8048    0.0000 C    0  0  0  0  0  0  0  0  0  0  0  0
   15.0369  -12.8024    0.0000 C    0  0  0  0  0  0  0  0  0  0  0  0
   13.8926  -13.4630    0.0000 C    0  0  0  0  0  0  0  0  0  0  0  0
   15.2026   -9.4702    0.0000 S    0  0  0  0  0  0  0  0  0  0  0  0
   16.0540  -10.4840    0.0000 C    0  0  0  0  0  0  0  0  0  0  0  0
   15.8269  -11.7932    0.0000 C    0  0  0  0  0  0  0  0  0  0  0  0
   17.3636  -10.2507    0.0000 C    0  0  0  0  0  0  0  0  0  0  0  0
  1  2  1  0  0  0  0
  1  3  2  0  0  0  0
  2  4  2  0  0  0  0
  3  5  1  0  0  0  0
  4  6  1  0  0  0  0
  5  6  2  0  0  0  0
  7  8  1  0  0  0  0
  7  9  2  0  0  0  0
  8 10  2  0  0  0  0
  9 11  1  0  0  0  0
 10 12  1  0  0  0  0
 11 12  2  0  0  0  0
 13 14  1  0  0  0  0
 13 15  2  0  0  0  0
 14 16  2  0  0  0  0
 15 17  1  0  0  0  0
 16 18  1  0  0  0  0
 17 18  2  0  0  0  0
 19 20  1  0  0  0  0
 19 21  2  0  0  0  0
 20 22  2  0  0  0  0
 21 23  1  0  0  0  0
 22 24  1  0  0  0  0
 23 24  2  0  0  0  0
 25 26  1  0  0  0  0
 25 27  2  0  0  0  0
 26 28  2  0  0  0  0
 27 29  1  0  0  0  0
 28 30  1  0  0  0  0
 29 30  2  0  0  0  0
 31 32  1  0  0  0  0
 31 33  2  0  0  0  0
 32 34  2  0  0  0  0
 33 35  1  0  0  0  0
 34 36  1  0  0  0  0
 35 36  2  0  0  0  0
 37 38  1  0  0  0  0
 37 39  1  0  0  0  0
 34 39  1  0  0  0  0
 26 39  1  0  0  0  0
 19 39  1  0  0  0  0
 15 38  1  0  0  0  0
 12 38  1  0  0  0  0
  4 38  1  0  0  0  0
 40 41  1  0  0  0  0
 40 42  2  0  0  0  0
 41 43  2  0  0  0  0
 42 44  1  0  0  0  0
 43 45  1  0  0  0  0
 44 45  2  0  0  0  0
 37 40  1  0  0  0  0
 37 46  1  0  0  0  0
 47 48  1  0  0  0  0
 47 49  1  0  0  0  0
 46 47  1  0  0  0  0
M  END
> <NMREDATA_VERSION>
1.1

> <NMREDATA_LEVEL>
0

> <NMREDATA_SOLVENT>
toluene-d8

> <NMREDATA_TEMPERATURE>
248

> <NMREDATA_FORMULA>
C44H45NP2RhS

> <NMREDATA_SMILES>
CC(S[Rh](P(c1ccccc1)(c1ccccc1)c1ccccc1)(P(c1ccccc1)(c1ccccc1)c1ccccc1)N1=CC=CC=C1)C

> <NMREDATA_ASSIGNMENT>
Rh37, 49.00, 37

> <NMREDATA_1D_103Rh>
49.00, L=Rh37

$$$$

  ACD/LABS03132412342D

 52 59  0  0  0  0  0  0  0  0  1 V2000
    7.1372   -5.7767    0.0000 C    0  0  0  0  0  0  0  0  0  0  0  0
    7.5808   -7.0359    0.0000 C    0  0  0  0  0  0  0  0  0  0  0  0
    7.9888   -4.7661    0.0000 C    0  0  0  0  0  0  0  0  0  0  0  0
    8.8930   -7.2666    0.0000 C    0  0  0  0  0  0  0  0  0  0  0  0
    9.3010   -4.9964    0.0000 C    0  0  0  0  0  0  0  0  0  0  0  0
    9.7533   -6.2469    0.0000 C    0  0  0  0  0  0  0  0  0  0  0  0
   13.2114   -7.6125    0.0000 C    0  0  0  0  0  0  0  0  0  0  0  0
   12.7500   -8.8629    0.0000 C    0  0  0  0  0  0  0  0  0  0  0  0
   12.3512   -6.5927    0.0000 C    0  0  0  0  0  0  0  0  0  0  0  0
   11.4469   -9.0845    0.0000 C    0  0  0  0  0  0  0  0  0  0  0  0
   11.0568   -6.8143    0.0000 C    0  0  0  0  0  0  0  0  0  0  0  0
   10.5958   -8.0648    0.0000 C    0  0  0  0  0  0  0  0  0  0  0  0
    7.6338  -10.2103    0.0000 C    0  0  0  0  0  0  0  0  0  0  0  0
    6.3303  -10.4407    0.0000 C    0  0  0  0  0  0  0  0  0  0  0  0
    8.0952   -8.9694    0.0000 C    0  0  0  0  0  0  0  0  0  0  0  0
    5.4701   -9.4209    0.0000 C    0  0  0  0  0  0  0  0  0  0  0  0
    7.2437   -7.9496    0.0000 C    0  0  0  0  0  0  0  0  0  0  0  0
    5.9315   -8.1799    0.0000 C    0  0  0  0  0  0  0  0  0  0  0  0
   14.1956   -6.8321    0.0000 C    0  0  0  0  0  0  0  0  0  0  0  0
   15.3483   -6.1669    0.0000 C    0  0  0  0  0  0  0  0  0  0  0  0
   13.0516   -6.1669    0.0000 C    0  0  0  0  0  0  0  0  0  0  0  0
   15.3483   -4.8369    0.0000 C    0  0  0  0  0  0  0  0  0  0  0  0
   13.0516   -4.8369    0.0000 C    0  0  0  0  0  0  0  0  0  0  0  0
   14.1956   -4.1717    0.0000 C    0  0  0  0  0  0  0  0  0  0  0  0
   15.9692   -6.6814    0.0000 C    0  0  0  0  0  0  0  0  0  0  0  0
   15.5078   -7.9318    0.0000 C    0  0  0  0  0  0  0  0  0  0  0  0
   17.2727   -6.4507    0.0000 C    0  0  0  0  0  0  0  0  0  0  0  0
   16.3594   -8.9516    0.0000 C    0  0  0  0  0  0  0  0  0  0  0  0
   18.1330   -7.4704    0.0000 C    0  0  0  0  0  0  0  0  0  0  0  0
   17.6716   -8.7209    0.0000 C    0  0  0  0  0  0  0  0  0  0  0  0
   15.9071  -11.2301    0.0000 C    0  0  0  0  0  0  0  0  0  0  0  0
   15.6764   -9.9175    0.0000 C    0  0  0  0  0  0  0  0  0  0  0  0
   14.8873  -12.0813    0.0000 C    0  0  0  0  0  0  0  0  0  0  0  0
   14.4263   -9.4565    0.0000 C    0  0  0  0  0  0  0  0  0  0  0  0
   13.6368  -11.6203    0.0000 C    0  0  0  0  0  0  0  0  0  0  0  0
   13.4065  -10.3168    0.0000 C    0  0  0  0  0  0  0  0  0  0  0  0
   10.0014   -9.6603    0.0000 Rh   0  0  0  0  0  0  0  0  0  0  0  0
    9.3453   -8.5171    0.0000 P    0  0  0  0  0  0  0  0  0  0  0  0
   14.1956   -8.1621    0.0000 P    0  0  0  0  0  0  0  0  0  0  0  0
   10.6666  -10.8221    0.0000 N    0  0  0  0  0  0  0  0  0  0  0  0
   11.9875  -10.8221    0.0000 C    0  0  0  0  0  0  0  0  0  0  0  0
    9.9927  -11.9661    0.0000 C    0  0  0  0  0  0  0  0  0  0  0  0
   12.6436  -11.9839    0.0000 C    0  0  0  0  0  0  0  0  0  0  0  0
   10.6488  -13.1276    0.0000 C    0  0  0  0  0  0  0  0  0  0  0  0
   11.9697  -13.1276    0.0000 C    0  0  0  0  0  0  0  0  0  0  0  0
    8.8487  -10.3255    0.0000 S    0  0  0  0  0  0  0  0  0  0  0  0
    8.3877  -11.5760    0.0000 C    0  0  0  0  0  0  0  0  0  0  0  0
    7.0842  -11.8063    0.0000 C    0  0  0  0  0  0  0  0  0  0  0  0
    9.2480  -12.5957    0.0000 C    0  0  0  0  0  0  0  0  0  0  0  0
    6.6232  -13.0480    0.0000 C    0  0  0  0  0  0  0  0  0  0  0  0
    8.7866  -13.8458    0.0000 C    0  0  0  0  0  0  0  0  0  0  0  0
    7.4744  -14.0678    0.0000 C    0  0  0  0  0  0  0  0  0  0  0  0
  1  2  1  0  0  0  0
  1  3  2  0  0  0  0
  2  4  2  0  0  0  0
  3  5  1  0  0  0  0
  4  6  1  0  0  0  0
  5  6  2  0  0  0  0
  7  8  1  0  0  0  0
  7  9  2  0  0  0  0
  8 10  2  0  0  0  0
  9 11  1  0  0  0  0
 10 12  1  0  0  0  0
 11 12  2  0  0  0  0
 13 14  1  0  0  0  0
 13 15  2  0  0  0  0
 14 16  2  0  0  0  0
 15 17  1  0  0  0  0
 16 18  1  0  0  0  0
 17 18  2  0  0  0  0
 19 20  1  0  0  0  0
 19 21  2  0  0  0  0
 20 22  2  0  0  0  0
 21 23  1  0  0  0  0
 22 24  1  0  0  0  0
 23 24  2  0  0  0  0
 25 26  1  0  0  0  0
 25 27  2  0  0  0  0
 26 28  2  0  0  0  0
 27 29  1  0  0  0  0
 28 30  1  0  0  0  0
 29 30  2  0  0  0  0
 31 32  1  0  0  0  0
 31 33  2  0  0  0  0
 32 34  2  0  0  0  0
 33 35  1  0  0  0  0
 34 36  1  0  0  0  0
 35 36  2  0  0  0  0
 37 38  1  0  0  0  0
 37 39  1  0  0  0  0
 34 39  1  0  0  0  0
 26 39  1  0  0  0  0
 19 39  1  0  0  0  0
 15 38  1  0  0  0  0
 12 38  1  0  0  0  0
  4 38  1  0  0  0  0
 40 41  1  0  0  0  0
 40 42  2  0  0  0  0
 41 43  2  0  0  0  0
 42 44  1  0  0  0  0
 43 45  1  0  0  0  0
 44 45  2  0  0  0  0
 37 40  1  0  0  0  0
 37 46  1  0  0  0  0
 47 48  1  0  0  0  0
 47 49  1  0  0  0  0
 48 50  1  0  0  0  0
 49 51  1  0  0  0  0
 50 52  1  0  0  0  0
 51 52  1  0  0  0  0
 46 47  1  0  0  0  0
M  END
> <NMREDATA_VERSION>
1.1

> <NMREDATA_LEVEL>
0

> <NMREDATA_SOLVENT>
toluene-d8

> <NMREDATA_TEMPERATURE>
248

> <NMREDATA_FORMULA>
C47H49NP2RhS

> <NMREDATA_SMILES>
C1CCC(CC1)S[Rh](P(c1ccccc1)(c1ccccc1)c1ccccc1)(P(c1ccccc1)(c1ccccc1)c1ccccc1)N1=CC=CC=C1

> <NMREDATA_ASSIGNMENT>
Rh37, 47.00, 37

> <NMREDATA_1D_103Rh>
47.00, L=Rh37

$$$$

  ACD/LABS03132412352D

 57 64  0  0  0  0  0  0  0  0  1 V2000
    7.1372   -5.7767    0.0000 C    0  0  0  0  0  0  0  0  0  0  0  0
    7.5808   -7.0359    0.0000 C    0  0  0  0  0  0  0  0  0  0  0  0
    7.9888   -4.7661    0.0000 C    0  0  0  0  0  0  0  0  0  0  0  0
    8.8930   -7.2666    0.0000 C    0  0  0  0  0  0  0  0  0  0  0  0
    9.3010   -4.9964    0.0000 C    0  0  0  0  0  0  0  0  0  0  0  0
    9.7533   -6.2469    0.0000 C    0  0  0  0  0  0  0  0  0  0  0  0
   13.2114   -7.6125    0.0000 C    0  0  0  0  0  0  0  0  0  0  0  0
   12.7500   -8.8629    0.0000 C    0  0  0  0  0  0  0  0  0  0  0  0
   12.3512   -6.5927    0.0000 C    0  0  0  0  0  0  0  0  0  0  0  0
   11.4469   -9.0845    0.0000 C    0  0  0  0  0  0  0  0  0  0  0  0
   11.0568   -6.8143    0.0000 C    0  0  0  0  0  0  0  0  0  0  0  0
   10.5958   -8.0648    0.0000 C    0  0  0  0  0  0  0  0  0  0  0  0
    7.6338  -10.2103    0.0000 C    0  0  0  0  0  0  0  0  0  0  0  0
    6.3303  -10.4407    0.0000 C    0  0  0  0  0  0  0  0  0  0  0  0
    8.0952   -8.9694    0.0000 C    0  0  0  0  0  0  0  0  0  0  0  0
    5.4701   -9.4209    0.0000 C    0  0  0  0  0  0  0  0  0  0  0  0
    7.2437   -7.9496    0.0000 C    0  0  0  0  0  0  0  0  0  0  0  0
    5.9315   -8.1799    0.0000 C    0  0  0  0  0  0  0  0  0  0  0  0
   14.1956   -6.8321    0.0000 C    0  0  0  0  0  0  0  0  0  0  0  0
   15.3483   -6.1669    0.0000 C    0  0  0  0  0  0  0  0  0  0  0  0
   13.0516   -6.1669    0.0000 C    0  0  0  0  0  0  0  0  0  0  0  0
   15.3483   -4.8369    0.0000 C    0  0  0  0  0  0  0  0  0  0  0  0
   13.0516   -4.8369    0.0000 C    0  0  0  0  0  0  0  0  0  0  0  0
   14.1956   -4.1717    0.0000 C    0  0  0  0  0  0  0  0  0  0  0  0
   15.9692   -6.6814    0.0000 C    0  0  0  0  0  0  0  0  0  0  0  0
   15.5078   -7.9318    0.0000 C    0  0  0  0  0  0  0  0  0  0  0  0
   17.2727   -6.4507    0.0000 C    0  0  0  0  0  0  0  0  0  0  0  0
   16.3594   -8.9516    0.0000 C    0  0  0  0  0  0  0  0  0  0  0  0
   18.1330   -7.4704    0.0000 C    0  0  0  0  0  0  0  0  0  0  0  0
   17.6716   -8.7209    0.0000 C    0  0  0  0  0  0  0  0  0  0  0  0
   15.9071  -11.2301    0.0000 C    0  0  0  0  0  0  0  0  0  0  0  0
   15.6764   -9.9175    0.0000 C    0  0  0  0  0  0  0  0  0  0  0  0
   14.8873  -12.0813    0.0000 C    0  0  0  0  0  0  0  0  0  0  0  0
   14.4263   -9.4565    0.0000 C    0  0  0  0  0  0  0  0  0  0  0  0
   13.6368  -11.6203    0.0000 C    0  0  0  0  0  0  0  0  0  0  0  0
   13.4065  -10.3168    0.0000 C    0  0  0  0  0  0  0  0  0  0  0  0
   10.0014   -9.6603    0.0000 Rh   0  0  0  0  0  0  0  0  0  0  0  0
    9.3453   -8.5171    0.0000 P    0  0  0  0  0  0  0  0  0  0  0  0
   14.1956   -8.1621    0.0000 P    0  0  0  0  0  0  0  0  0  0  0  0
   10.6666  -10.8221    0.0000 N    0  0  0  0  0  0  0  0  0  0  0  0
   11.9875  -10.8221    0.0000 C    0  0  0  0  0  0  0  0  0  0  0  0
    9.9927  -11.9661    0.0000 C    0  0  0  0  0  0  0  0  0  0  0  0
   12.6436  -11.9839    0.0000 C    0  0  0  0  0  0  0  0  0  0  0  0
   10.6488  -13.1276    0.0000 C    0  0  0  0  0  0  0  0  0  0  0  0
   11.9697  -13.1276    0.0000 C    0  0  0  0  0  0  0  0  0  0  0  0
    8.8487  -10.3255    0.0000 S    0  0  0  0  0  0  0  0  0  0  0  0
    8.3877  -11.5760    0.0000 C    0  0  0  0  0  0  0  0  0  0  0  0
    7.0842  -11.8063    0.0000 C    0  0  0  0  0  0  0  0  0  0  0  0
    9.2480  -12.5957    0.0000 C    0  0  0  0  0  0  0  0  0  0  0  0
    6.6232  -13.0480    0.0000 C    0  0  0  0  0  0  0  0  0  0  0  0
    8.7866  -13.8458    0.0000 C    0  0  0  0  0  0  0  0  0  0  0  0
    7.4744  -14.0678    0.0000 C    0  0  0  0  0  0  0  0  0  0  0  0
    6.3936  -11.3771    0.0000 F    0  0  0  0  0  0  0  0  0  0  0  0
    5.6084  -13.2199    0.0000 F    0  0  0  0  0  0  0  0  0  0  0  0
    7.2749  -15.1268    0.0000 F    0  0  0  0  0  0  0  0  0  0  0  0
    9.2780  -14.6941    0.0000 F    0  0  0  0  0  0  0  0  0  0  0  0
    9.8869  -12.4668    0.0000 F    0  0  0  0  0  0  0  0  0  0  0  0
  1  2  1  0  0  0  0
  1  3  2  0  0  0  0
  2  4  2  0  0  0  0
  3  5  1  0  0  0  0
  4  6  1  0  0  0  0
  5  6  2  0  0  0  0
  7  8  1  0  0  0  0
  7  9  2  0  0  0  0
  8 10  2  0  0  0  0
  9 11  1  0  0  0  0
 10 12  1  0  0  0  0
 11 12  2  0  0  0  0
 13 14  1  0  0  0  0
 13 15  2  0  0  0  0
 14 16  2  0  0  0  0
 15 17  1  0  0  0  0
 16 18  1  0  0  0  0
 17 18  2  0  0  0  0
 19 20  1  0  0  0  0
 19 21  2  0  0  0  0
 20 22  2  0  0  0  0
 21 23  1  0  0  0  0
 22 24  1  0  0  0  0
 23 24  2  0  0  0  0
 25 26  1  0  0  0  0
 25 27  2  0  0  0  0
 26 28  2  0  0  0  0
 27 29  1  0  0  0  0
 28 30  1  0  0  0  0
 29 30  2  0  0  0  0
 31 32  1  0  0  0  0
 31 33  2  0  0  0  0
 32 34  2  0  0  0  0
 33 35  1  0  0  0  0
 34 36  1  0  0  0  0
 35 36  2  0  0  0  0
 37 38  1  0  0  0  0
 37 39  1  0  0  0  0
 34 39  1  0  0  0  0
 26 39  1  0  0  0  0
 19 39  1  0  0  0  0
 15 38  1  0  0  0  0
 12 38  1  0  0  0  0
  4 38  1  0  0  0  0
 40 41  1  0  0  0  0
 40 42  2  0  0  0  0
 41 43  2  0  0  0  0
 42 44  1  0  0  0  0
 43 45  1  0  0  0  0
 44 45  2  0  0  0  0
 37 40  1  0  0  0  0
 37 46  1  0  0  0  0
 47 48  2  0  0  0  0
 47 49  1  0  0  0  0
 48 50  1  0  0  0  0
 49 51  2  0  0  0  0
 50 52  2  0  0  0  0
 51 52  1  0  0  0  0
 46 47  1  0  0  0  0
 48 53  1  0  0  0  0
 50 54  1  0  0  0  0
 52 55  1  0  0  0  0
 51 56  1  0  0  0  0
 49 57  1  0  0  0  0
M  END
> <NMREDATA_VERSION>
1.1

> <NMREDATA_LEVEL>
0

> <NMREDATA_SOLVENT>
toluene-d8

> <NMREDATA_TEMPERATURE>
248

> <NMREDATA_FORMULA>
C47H38F5NP2RhS

> <NMREDATA_SMILES>
Fc1c(S[Rh](P(c2ccccc2)(c2ccccc2)c2ccccc2)(P(c2ccccc2)(c2ccccc2)c2ccccc2)N2=CC=CC=C2)c(F)c(c(c1F)F)F

> <NMREDATA_ASSIGNMENT>
Rh37, 7.00, 37

> <NMREDATA_1D_103Rh>
7.00, L=Rh37

$$$$

  ACD/LABS03132412362D

 62 70  0  0  0  0  0  0  0  0  1 V2000
    9.4996   -5.9123    0.0000 C    0  0  0  0  0  0  0  0  0  0  0  0
    8.3481   -6.5778    0.0000 C    0  0  0  0  0  0  0  0  0  0  0  0
    9.5002   -4.5823    0.0000 C    0  0  0  0  0  0  0  0  0  0  0  0
    7.1969   -5.9131    0.0000 C    0  0  0  0  0  0  0  0  0  0  0  0
    8.3490   -3.9176    0.0000 C    0  0  0  0  0  0  0  0  0  0  0  0
    7.1971   -4.5829    0.0000 C    0  0  0  0  0  0  0  0  0  0  0  0
   12.9540   -6.5763    0.0000 C    0  0  0  0  0  0  0  0  0  0  0  0
   14.0971   -7.2363    0.0000 C    0  0  0  0  0  0  0  0  0  0  0  0
   11.8021   -7.2416    0.0000 C    0  0  0  0  0  0  0  0  0  0  0  0
   14.0968   -8.5665    0.0000 C    0  0  0  0  0  0  0  0  0  0  0  0
   11.8019   -8.5718    0.0000 C    0  0  0  0  0  0  0  0  0  0  0  0
   12.9450   -9.2318    0.0000 C    0  0  0  0  0  0  0  0  0  0  0  0
   10.6500   -4.2742    0.0000 C    0  0  0  0  0  0  0  0  0  0  0  0
   11.3147   -3.1229    0.0000 C    0  0  0  0  0  0  0  0  0  0  0  0
   11.3155   -5.4257    0.0000 C    0  0  0  0  0  0  0  0  0  0  0  0
   12.6449   -3.1232    0.0000 C    0  0  0  0  0  0  0  0  0  0  0  0
   12.6455   -5.4263    0.0000 C    0  0  0  0  0  0  0  0  0  0  0  0
   13.3102   -4.2751    0.0000 C    0  0  0  0  0  0  0  0  0  0  0  0
   16.6906   -7.6183    0.0000 C    0  0  0  0  0  0  0  0  0  0  0  0
   15.3784   -7.8533    0.0000 C    0  0  0  0  0  0  0  0  0  0  0  0
   17.5423   -8.6420    0.0000 C    0  0  0  0  0  0  0  0  0  0  0  0
   14.9263   -9.0967    0.0000 C    0  0  0  0  0  0  0  0  0  0  0  0
   17.0861   -9.8934    0.0000 C    0  0  0  0  0  0  0  0  0  0  0  0
   15.7780  -10.1204    0.0000 C    0  0  0  0  0  0  0  0  0  0  0  0
   13.9547  -15.1046    0.0000 C    0  0  0  0  0  0  0  0  0  0  0  0
   15.2623  -14.8774    0.0000 C    0  0  0  0  0  0  0  0  0  0  0  0
   13.0985  -14.0886    0.0000 C    0  0  0  0  0  0  0  0  0  0  0  0
   15.7187  -13.6266    0.0000 C    0  0  0  0  0  0  0  0  0  0  0  0
   13.5547  -12.8372    0.0000 C    0  0  0  0  0  0  0  0  0  0  0  0
   14.8628  -12.6102    0.0000 C    0  0  0  0  0  0  0  0  0  0  0  0
    8.2130  -13.2635    0.0000 C    0  0  0  0  0  0  0  0  0  0  0  0
    6.8975  -13.4863    0.0000 C    0  0  0  0  0  0  0  0  0  0  0  0
    9.0614  -14.2750    0.0000 C    0  0  0  0  0  0  0  0  0  0  0  0
    6.4411  -14.7370    0.0000 C    0  0  0  0  0  0  0  0  0  0  0  0
    8.6052  -15.5264    0.0000 C    0  0  0  0  0  0  0  0  0  0  0  0
    7.2971  -15.7534    0.0000 C    0  0  0  0  0  0  0  0  0  0  0  0
    6.3944  -12.4078    0.0000 C    0  0  0  0  0  0  0  0  0  0  0  0
    7.4182  -11.5561    0.0000 C    0  0  0  0  0  0  0  0  0  0  0  0
    5.1552  -11.9483    0.0000 C    0  0  0  0  0  0  0  0  0  0  0  0
    7.1911  -10.2480    0.0000 C    0  0  0  0  0  0  0  0  0  0  0  0
    4.9205  -10.6358    0.0000 C    0  0  0  0  0  0  0  0  0  0  0  0
    5.9442   -9.7841    0.0000 C    0  0  0  0  0  0  0  0  0  0  0  0
   12.1751  -12.0718    0.0000 C    0  0  0  0  0  0  0  0  0  0  0  0
   10.9366  -11.6121    0.0000 C    0  0  0  0  0  0  0  0  0  0  0  0
   12.4023  -13.3795    0.0000 C    0  0  0  0  0  0  0  0  0  0  0  0
    9.9203  -12.4687    0.0000 C    0  0  0  0  0  0  0  0  0  0  0  0
   11.3906  -14.2283    0.0000 C    0  0  0  0  0  0  0  0  0  0  0  0
   10.1476  -13.7764    0.0000 C    0  0  0  0  0  0  0  0  0  0  0  0
    9.6661   -9.2929    0.0000 Rh   0  0  0  0  0  0  0  0  0  0  0  0
    8.4154   -8.8365    0.0000 O    0  0  0  0  0  0  0  0  0  0  0  0
    8.1836   -7.5366    0.0000 C    0  0  0  0  0  0  0  0  0  0  0  0
    9.1996   -6.6804    0.0000 O    0  0  0  0  0  0  0  0  0  0  0  0
    6.9367   -7.0726    0.0000 C    0  0  0  0  0  0  0  0  0  0  0  0
   15.3143  -11.3670    0.0000 P    0  0  0  0  0  0  0  0  0  0  0  0
    8.6692  -12.0121    0.0000 P    0  0  0  0  0  0  0  0  0  0  0  0
   10.6509   -6.5769    0.0000 P    0  0  0  0  0  0  0  0  0  0  0  0
   18.8325  -11.4234    0.0000 C    0  0  0  0  0  0  0  0  0  0  0  0
   17.5892  -10.9719    0.0000 C    0  0  0  0  0  0  0  0  0  0  0  0
   19.0676  -12.7362    0.0000 C    0  0  0  0  0  0  0  0  0  0  0  0
   16.5654  -11.8236    0.0000 C    0  0  0  0  0  0  0  0  0  0  0  0
   18.0435  -13.5876    0.0000 C    0  0  0  0  0  0  0  0  0  0  0  0
   16.7927  -13.1313    0.0000 C    0  0  0  0  0  0  0  0  0  0  0  0
  1  2  1  0  0  0  0
  1  3  2  0  0  0  0
  2  4  2  0  0  0  0
  3  5  1  0  0  0  0
  4  6  1  0  0  0  0
  5  6  2  0  0  0  0
  7  8  1  0  0  0  0
  7  9  2  0  0  0  0
  8 10  2  0  0  0  0
  9 11  1  0  0  0  0
 10 12  1  0  0  0  0
 11 12  2  0  0  0  0
 13 14  1  0  0  0  0
 13 15  2  0  0  0  0
 14 16  2  0  0  0  0
 15 17  1  0  0  0  0
 16 18  1  0  0  0  0
 17 18  2  0  0  0  0
 19 20  1  0  0  0  0
 19 21  2  0  0  0  0
 20 22  2  0  0  0  0
 21 23  1  0  0  0  0
 22 24  1  0  0  0  0
 23 24  2  0  0  0  0
 25 26  1  0  0  0  0
 25 27  2  0  0  0  0
 26 28  2  0  0  0  0
 27 29  1  0  0  0  0
 28 30  1  0  0  0  0
 29 30  2  0  0  0  0
 31 32  1  0  0  0  0
 31 33  2  0  0  0  0
 32 34  2  0  0  0  0
 33 35  1  0  0  0  0
 34 36  1  0  0  0  0
 35 36  2  0  0  0  0
 37 38  1  0  0  0  0
 37 39  2  0  0  0  0
 38 40  2  0  0  0  0
 39 41  1  0  0  0  0
 40 42  1  0  0  0  0
 41 42  2  0  0  0  0
 43 44  1  0  0  0  0
 43 45  2  0  0  0  0
 44 46  2  0  0  0  0
 45 47  1  0  0  0  0
 46 48  1  0  0  0  0
 47 48  2  0  0  0  0
 49 50  1  0  0  0  0
 50 51  1  0  0  0  0
 51 52  2  0  0  0  0
 51 53  1  0  0  0  0
 49 54  1  0  0  0  0
 49 55  1  0  0  0  0
 49 56  1  0  0  0  0
 46 55  1  0  0  0  0
 38 55  1  0  0  0  0
 31 55  1  0  0  0  0
 57 58  1  0  0  0  0
 57 59  2  0  0  0  0
 58 60  2  0  0  0  0
 59 61  1  0  0  0  0
 60 62  1  0  0  0  0
 61 62  2  0  0  0  0
 54 60  1  0  0  0  0
 30 54  1  0  0  0  0
 24 54  1  0  0  0  0
 15 56  1  0  0  0  0
  9 56  1  0  0  0  0
  1 56  1  0  0  0  0
M  END
> <NMREDATA_VERSION>
1.1

> <NMREDATA_LEVEL>
0

> <NMREDATA_SOLVENT>
toluene-d8

> <NMREDATA_TEMPERATURE>
248

> <NMREDATA_FORMULA>
C56H51O2P3Rh

> <NMREDATA_SMILES>
CC(=O)O[Rh](P(c1ccccc1)(c1ccccc1)c1ccccc1)(P(c1ccccc1)(c1ccccc1)c1ccccc1)P(c1ccccc1)(c1ccccc1)c1ccccc1

> <NMREDATA_ASSIGNMENT>
Rh49, 26.00, 49

> <NMREDATA_1D_103Rh>
26.00, L=Rh49

$$$$

  ACD/LABS03132412372D

 47 52  0  0  0  0  0  0  0  0  1 V2000
    9.4996   -5.9123    0.0000 C    0  0  0  0  0  0  0  0  0  0  0  0
    8.3481   -6.5778    0.0000 C    0  0  0  0  0  0  0  0  0  0  0  0
    9.5002   -4.5823    0.0000 C    0  0  0  0  0  0  0  0  0  0  0  0
    7.1969   -5.9131    0.0000 C    0  0  0  0  0  0  0  0  0  0  0  0
    8.3490   -3.9176    0.0000 C    0  0  0  0  0  0  0  0  0  0  0  0
    7.1971   -4.5829    0.0000 C    0  0  0  0  0  0  0  0  0  0  0  0
   10.6500   -4.2742    0.0000 C    0  0  0  0  0  0  0  0  0  0  0  0
   11.3147   -3.1229    0.0000 C    0  0  0  0  0  0  0  0  0  0  0  0
   11.3155   -5.4257    0.0000 C    0  0  0  0  0  0  0  0  0  0  0  0
   12.6449   -3.1232    0.0000 C    0  0  0  0  0  0  0  0  0  0  0  0
   12.6455   -5.4263    0.0000 C    0  0  0  0  0  0  0  0  0  0  0  0
   13.3102   -4.2751    0.0000 C    0  0  0  0  0  0  0  0  0  0  0  0
   13.9547  -15.1046    0.0000 C    0  0  0  0  0  0  0  0  0  0  0  0
   15.2623  -14.8774    0.0000 C    0  0  0  0  0  0  0  0  0  0  0  0
   13.0985  -14.0886    0.0000 C    0  0  0  0  0  0  0  0  0  0  0  0
   15.7187  -13.6266    0.0000 C    0  0  0  0  0  0  0  0  0  0  0  0
   13.5547  -12.8372    0.0000 C    0  0  0  0  0  0  0  0  0  0  0  0
   14.8628  -12.6102    0.0000 C    0  0  0  0  0  0  0  0  0  0  0  0
    8.2130  -13.2635    0.0000 C    0  0  0  0  0  0  0  0  0  0  0  0
    6.8975  -13.4863    0.0000 C    0  0  0  0  0  0  0  0  0  0  0  0
    9.0614  -14.2750    0.0000 C    0  0  0  0  0  0  0  0  0  0  0  0
    6.4411  -14.7370    0.0000 C    0  0  0  0  0  0  0  0  0  0  0  0
    8.6052  -15.5264    0.0000 C    0  0  0  0  0  0  0  0  0  0  0  0
    7.2971  -15.7534    0.0000 C    0  0  0  0  0  0  0  0  0  0  0  0
    6.3944  -12.4078    0.0000 C    0  0  0  0  0  0  0  0  0  0  0  0
    7.4182  -11.5561    0.0000 C    0  0  0  0  0  0  0  0  0  0  0  0
    5.1552  -11.9483    0.0000 C    0  0  0  0  0  0  0  0  0  0  0  0
    7.1911  -10.2480    0.0000 C    0  0  0  0  0  0  0  0  0  0  0  0
    4.9205  -10.6358    0.0000 C    0  0  0  0  0  0  0  0  0  0  0  0
    5.9442   -9.7841    0.0000 C    0  0  0  0  0  0  0  0  0  0  0  0
    9.6661   -9.2929    0.0000 Rh   0  0  0  0  0  0  0  0  0  0  0  0
    8.4154   -8.8365    0.0000 O    0  0  0  0  0  0  0  0  0  0  0  0
    8.1836   -7.5366    0.0000 C    0  0  0  0  0  0  0  0  0  0  0  0
    9.1996   -6.6804    0.0000 O    0  0  0  0  0  0  0  0  0  0  0  0
    6.9367   -7.0726    0.0000 C    0  0  0  0  0  0  0  0  0  0  0  0
   15.3143  -11.3670    0.0000 P    0  0  0  0  0  0  0  0  0  0  0  0
    8.6692  -12.0121    0.0000 P    0  0  0  0  0  0  0  0  0  0  0  0
   10.6509   -6.5769    0.0000 P    0  0  0  0  0  0  0  0  0  0  0  0
   18.8325  -11.4234    0.0000 C    0  0  0  0  0  0  0  0  0  0  0  0
   17.5892  -10.9719    0.0000 C    0  0  0  0  0  0  0  0  0  0  0  0
   19.0676  -12.7362    0.0000 C    0  0  0  0  0  0  0  0  0  0  0  0
   16.5654  -11.8236    0.0000 C    0  0  0  0  0  0  0  0  0  0  0  0
   18.0435  -13.5876    0.0000 C    0  0  0  0  0  0  0  0  0  0  0  0
   16.7927  -13.1313    0.0000 C    0  0  0  0  0  0  0  0  0  0  0  0
   11.9059   -7.0827    0.0000 C    0  0  0  0  0  0  0  0  0  0  0  0
    9.9670  -12.4187    0.0000 C    0  0  0  0  0  0  0  0  0  0  0  0
   15.7517  -10.1272    0.0000 C    0  0  0  0  0  0  0  0  0  0  0  0
  1  2  1  0  0  0  0
  1  3  2  0  0  0  0
  2  4  2  0  0  0  0
  3  5  1  0  0  0  0
  4  6  1  0  0  0  0
  5  6  2  0  0  0  0
  7  8  1  0  0  0  0
  7  9  2  0  0  0  0
  8 10  2  0  0  0  0
  9 11  1  0  0  0  0
 10 12  1  0  0  0  0
 11 12  2  0  0  0  0
 13 14  1  0  0  0  0
 13 15  2  0  0  0  0
 14 16  2  0  0  0  0
 15 17  1  0  0  0  0
 16 18  1  0  0  0  0
 17 18  2  0  0  0  0
 19 20  1  0  0  0  0
 19 21  2  0  0  0  0
 20 22  2  0  0  0  0
 21 23  1  0  0  0  0
 22 24  1  0  0  0  0
 23 24  2  0  0  0  0
 25 26  1  0  0  0  0
 25 27  2  0  0  0  0
 26 28  2  0  0  0  0
 27 29  1  0  0  0  0
 28 30  1  0  0  0  0
 29 30  2  0  0  0  0
 31 32  1  0  0  0  0
 32 33  1  0  0  0  0
 33 34  2  0  0  0  0
 33 35  1  0  0  0  0
 31 36  1  0  0  0  0
 31 37  1  0  0  0  0
 31 38  1  0  0  0  0
 26 37  1  0  0  0  0
 19 37  1  0  0  0  0
 39 40  1  0  0  0  0
 39 41  2  0  0  0  0
 40 42  2  0  0  0  0
 41 43  1  0  0  0  0
 42 44  1  0  0  0  0
 43 44  2  0  0  0  0
 36 42  1  0  0  0  0
 18 36  1  0  0  0  0
  9 38  1  0  0  0  0
  1 38  1  0  0  0  0
 38 45  1  0  0  0  0
 37 46  1  0  0  0  0
 36 47  1  0  0  0  0
M  END
> <NMREDATA_VERSION>
1.1

> <NMREDATA_LEVEL>
0

> <NMREDATA_SOLVENT>
toluene-d8

> <NMREDATA_TEMPERATURE>
248

> <NMREDATA_FORMULA>
C41H45O2P3Rh

> <NMREDATA_SMILES>
CC(=O)O[Rh](P(c1ccccc1)(c1ccccc1)C)(P(c1ccccc1)(c1ccccc1)C)P(c1ccccc1)(c1ccccc1)C

> <NMREDATA_ASSIGNMENT>
Rh31, 138.00, 31

> <NMREDATA_1D_103Rh>
138.00, L=Rh31

$$$$

  ACD/LABS03132412372D

 65 73  0  0  0  0  0  0  0  0  1 V2000
    9.4996   -5.9123    0.0000 C    0  0  0  0  0  0  0  0  0  0  0  0
    8.3481   -6.5778    0.0000 C    0  0  0  0  0  0  0  0  0  0  0  0
    9.5002   -4.5823    0.0000 C    0  0  0  0  0  0  0  0  0  0  0  0
    7.1969   -5.9131    0.0000 C    0  0  0  0  0  0  0  0  0  0  0  0
    8.3490   -3.9176    0.0000 C    0  0  0  0  0  0  0  0  0  0  0  0
    7.1971   -4.5829    0.0000 C    0  0  0  0  0  0  0  0  0  0  0  0
   12.9540   -6.5763    0.0000 C    0  0  0  0  0  0  0  0  0  0  0  0
   14.0971   -7.2363    0.0000 C    0  0  0  0  0  0  0  0  0  0  0  0
   11.8021   -7.2416    0.0000 C    0  0  0  0  0  0  0  0  0  0  0  0
   14.0968   -8.5665    0.0000 C    0  0  0  0  0  0  0  0  0  0  0  0
   11.8019   -8.5718    0.0000 C    0  0  0  0  0  0  0  0  0  0  0  0
   12.9450   -9.2318    0.0000 C    0  0  0  0  0  0  0  0  0  0  0  0
   10.6500   -4.2742    0.0000 C    0  0  0  0  0  0  0  0  0  0  0  0
   11.3147   -3.1229    0.0000 C    0  0  0  0  0  0  0  0  0  0  0  0
   11.3155   -5.4257    0.0000 C    0  0  0  0  0  0  0  0  0  0  0  0
   12.6449   -3.1232    0.0000 C    0  0  0  0  0  0  0  0  0  0  0  0
   12.6455   -5.4263    0.0000 C    0  0  0  0  0  0  0  0  0  0  0  0
   13.3102   -4.2751    0.0000 C    0  0  0  0  0  0  0  0  0  0  0  0
   16.6906   -7.6183    0.0000 C    0  0  0  0  0  0  0  0  0  0  0  0
   15.3784   -7.8533    0.0000 C    0  0  0  0  0  0  0  0  0  0  0  0
   17.5423   -8.6420    0.0000 C    0  0  0  0  0  0  0  0  0  0  0  0
   14.9263   -9.0967    0.0000 C    0  0  0  0  0  0  0  0  0  0  0  0
   17.0861   -9.8934    0.0000 C    0  0  0  0  0  0  0  0  0  0  0  0
   15.7780  -10.1204    0.0000 C    0  0  0  0  0  0  0  0  0  0  0  0
   13.9547  -15.1046    0.0000 C    0  0  0  0  0  0  0  0  0  0  0  0
   15.2623  -14.8774    0.0000 C    0  0  0  0  0  0  0  0  0  0  0  0
   13.0985  -14.0886    0.0000 C    0  0  0  0  0  0  0  0  0  0  0  0
   15.7187  -13.6266    0.0000 C    0  0  0  0  0  0  0  0  0  0  0  0
   13.5547  -12.8372    0.0000 C    0  0  0  0  0  0  0  0  0  0  0  0
   14.8628  -12.6102    0.0000 C    0  0  0  0  0  0  0  0  0  0  0  0
    8.2130  -13.2635    0.0000 C    0  0  0  0  0  0  0  0  0  0  0  0
    6.8975  -13.4863    0.0000 C    0  0  0  0  0  0  0  0  0  0  0  0
    9.0614  -14.2750    0.0000 C    0  0  0  0  0  0  0  0  0  0  0  0
    6.4411  -14.7370    0.0000 C    0  0  0  0  0  0  0  0  0  0  0  0
    8.6052  -15.5264    0.0000 C    0  0  0  0  0  0  0  0  0  0  0  0
    7.2971  -15.7534    0.0000 C    0  0  0  0  0  0  0  0  0  0  0  0
    6.3944  -12.4078    0.0000 C    0  0  0  0  0  0  0  0  0  0  0  0
    7.4182  -11.5561    0.0000 C    0  0  0  0  0  0  0  0  0  0  0  0
    5.1552  -11.9483    0.0000 C    0  0  0  0  0  0  0  0  0  0  0  0
    7.1911  -10.2480    0.0000 C    0  0  0  0  0  0  0  0  0  0  0  0
    4.9205  -10.6358    0.0000 C    0  0  0  0  0  0  0  0  0  0  0  0
    5.9442   -9.7841    0.0000 C    0  0  0  0  0  0  0  0  0  0  0  0
   12.1751  -12.0718    0.0000 C    0  0  0  0  0  0  0  0  0  0  0  0
   10.9366  -11.6121    0.0000 C    0  0  0  0  0  0  0  0  0  0  0  0
   12.4023  -13.3795    0.0000 C    0  0  0  0  0  0  0  0  0  0  0  0
    9.9203  -12.4687    0.0000 C    0  0  0  0  0  0  0  0  0  0  0  0
   11.3906  -14.2283    0.0000 C    0  0  0  0  0  0  0  0  0  0  0  0
   10.1476  -13.7764    0.0000 C    0  0  0  0  0  0  0  0  0  0  0  0
    9.6661   -9.2929    0.0000 Rh   0  0  0  0  0  0  0  0  0  0  0  0
    8.4154   -8.8365    0.0000 O    0  0  0  0  0  0  0  0  0  0  0  0
    8.1836   -7.5366    0.0000 C    0  0  0  0  0  0  0  0  0  0  0  0
    9.1996   -6.6804    0.0000 O    0  0  0  0  0  0  0  0  0  0  0  0
    6.9367   -7.0726    0.0000 C    0  0  0  0  0  0  0  0  0  0  0  0
   15.3143  -11.3670    0.0000 P    0  0  0  0  0  0  0  0  0  0  0  0
    8.6692  -12.0121    0.0000 P    0  0  0  0  0  0  0  0  0  0  0  0
   10.6509   -6.5769    0.0000 P    0  0  0  0  0  0  0  0  0  0  0  0
   18.8325  -11.4234    0.0000 C    0  0  0  0  0  0  0  0  0  0  0  0
   17.5892  -10.9719    0.0000 C    0  0  0  0  0  0  0  0  0  0  0  0
   19.0676  -12.7362    0.0000 C    0  0  0  0  0  0  0  0  0  0  0  0
   16.5654  -11.8236    0.0000 C    0  0  0  0  0  0  0  0  0  0  0  0
   18.0435  -13.5876    0.0000 C    0  0  0  0  0  0  0  0  0  0  0  0
   16.7927  -13.1313    0.0000 C    0  0  0  0  0  0  0  0  0  0  0  0
    6.5058   -5.9610    0.0000 F    0  0  0  0  0  0  0  0  0  0  0  0
    5.7046   -7.0987    0.0000 F    0  0  0  0  0  0  0  0  0  0  0  0
    6.1372   -7.8839    0.0000 F    0  0  0  0  0  0  0  0  0  0  0  0
  1  2  1  0  0  0  0
  1  3  2  0  0  0  0
  2  4  2  0  0  0  0
  3  5  1  0  0  0  0
  4  6  1  0  0  0  0
  5  6  2  0  0  0  0
  7  8  1  0  0  0  0
  7  9  2  0  0  0  0
  8 10  2  0  0  0  0
  9 11  1  0  0  0  0
 10 12  1  0  0  0  0
 11 12  2  0  0  0  0
 13 14  1  0  0  0  0
 13 15  2  0  0  0  0
 14 16  2  0  0  0  0
 15 17  1  0  0  0  0
 16 18  1  0  0  0  0
 17 18  2  0  0  0  0
 19 20  1  0  0  0  0
 19 21  2  0  0  0  0
 20 22  2  0  0  0  0
 21 23  1  0  0  0  0
 22 24  1  0  0  0  0
 23 24  2  0  0  0  0
 25 26  1  0  0  0  0
 25 27  2  0  0  0  0
 26 28  2  0  0  0  0
 27 29  1  0  0  0  0
 28 30  1  0  0  0  0
 29 30  2  0  0  0  0
 31 32  1  0  0  0  0
 31 33  2  0  0  0  0
 32 34  2  0  0  0  0
 33 35  1  0  0  0  0
 34 36  1  0  0  0  0
 35 36  2  0  0  0  0
 37 38  1  0  0  0  0
 37 39  2  0  0  0  0
 38 40  2  0  0  0  0
 39 41  1  0  0  0  0
 40 42  1  0  0  0  0
 41 42  2  0  0  0  0
 43 44  1  0  0  0  0
 43 45  2  0  0  0  0
 44 46  2  0  0  0  0
 45 47  1  0  0  0  0
 46 48  1  0  0  0  0
 47 48  2  0  0  0  0
 49 50  1  0  0  0  0
 50 51  1  0  0  0  0
 51 52  2  0  0  0  0
 51 53  1  0  0  0  0
 49 54  1  0  0  0  0
 49 55  1  0  0  0  0
 49 56  1  0  0  0  0
 46 55  1  0  0  0  0
 38 55  1  0  0  0  0
 31 55  1  0  0  0  0
 57 58  1  0  0  0  0
 57 59  2  0  0  0  0
 58 60  2  0  0  0  0
 59 61  1  0  0  0  0
 60 62  1  0  0  0  0
 61 62  2  0  0  0  0
 54 60  1  0  0  0  0
 30 54  1  0  0  0  0
 24 54  1  0  0  0  0
 15 56  1  0  0  0  0
  9 56  1  0  0  0  0
  1 56  1  0  0  0  0
 53 63  1  0  0  0  0
 53 64  1  0  0  0  0
 53 65  1  0  0  0  0
M  END
> <NMREDATA_VERSION>
1.1

> <NMREDATA_LEVEL>
0

> <NMREDATA_SOLVENT>
toluene-d8

> <NMREDATA_TEMPERATURE>
248

> <NMREDATA_FORMULA>
C56H48F3O2P3Rh

> <NMREDATA_SMILES>
O=C(C(F)(F)F)O[Rh](P(c1ccccc1)(c1ccccc1)c1ccccc1)(P(c1ccccc1)(c1ccccc1)c1ccccc1)P(c1ccccc1)(c1ccccc1)c1ccccc1

> <NMREDATA_ASSIGNMENT>
Rh49, 38.00, 49

> <NMREDATA_1D_103Rh>
38.00, L=Rh49

$$$$

  ACD/LABS03132412382D

 67 76  0  0  0  0  0  0  0  0  1 V2000
    9.4996   -5.9123    0.0000 C    0  0  0  0  0  0  0  0  0  0  0  0
    8.3481   -6.5778    0.0000 C    0  0  0  0  0  0  0  0  0  0  0  0
    9.5002   -4.5823    0.0000 C    0  0  0  0  0  0  0  0  0  0  0  0
    7.1969   -5.9131    0.0000 C    0  0  0  0  0  0  0  0  0  0  0  0
    8.3490   -3.9176    0.0000 C    0  0  0  0  0  0  0  0  0  0  0  0
    7.1971   -4.5829    0.0000 C    0  0  0  0  0  0  0  0  0  0  0  0
   12.9540   -6.5763    0.0000 C    0  0  0  0  0  0  0  0  0  0  0  0
   14.0971   -7.2363    0.0000 C    0  0  0  0  0  0  0  0  0  0  0  0
   11.8021   -7.2416    0.0000 C    0  0  0  0  0  0  0  0  0  0  0  0
   14.0968   -8.5665    0.0000 C    0  0  0  0  0  0  0  0  0  0  0  0
   11.8019   -8.5718    0.0000 C    0  0  0  0  0  0  0  0  0  0  0  0
   12.9450   -9.2318    0.0000 C    0  0  0  0  0  0  0  0  0  0  0  0
   10.6500   -4.2742    0.0000 C    0  0  0  0  0  0  0  0  0  0  0  0
   11.3147   -3.1229    0.0000 C    0  0  0  0  0  0  0  0  0  0  0  0
   11.3155   -5.4257    0.0000 C    0  0  0  0  0  0  0  0  0  0  0  0
   12.6449   -3.1232    0.0000 C    0  0  0  0  0  0  0  0  0  0  0  0
   12.6455   -5.4263    0.0000 C    0  0  0  0  0  0  0  0  0  0  0  0
   13.3102   -4.2751    0.0000 C    0  0  0  0  0  0  0  0  0  0  0  0
   16.6906   -7.6183    0.0000 C    0  0  0  0  0  0  0  0  0  0  0  0
   15.3784   -7.8533    0.0000 C    0  0  0  0  0  0  0  0  0  0  0  0
   17.5423   -8.6420    0.0000 C    0  0  0  0  0  0  0  0  0  0  0  0
   14.9263   -9.0967    0.0000 C    0  0  0  0  0  0  0  0  0  0  0  0
   17.0861   -9.8934    0.0000 C    0  0  0  0  0  0  0  0  0  0  0  0
   15.7780  -10.1204    0.0000 C    0  0  0  0  0  0  0  0  0  0  0  0
   13.9547  -15.1046    0.0000 C    0  0  0  0  0  0  0  0  0  0  0  0
   15.2623  -14.8774    0.0000 C    0  0  0  0  0  0  0  0  0  0  0  0
   13.0985  -14.0886    0.0000 C    0  0  0  0  0  0  0  0  0  0  0  0
   15.7187  -13.6266    0.0000 C    0  0  0  0  0  0  0  0  0  0  0  0
   13.5547  -12.8372    0.0000 C    0  0  0  0  0  0  0  0  0  0  0  0
   14.8628  -12.6102    0.0000 C    0  0  0  0  0  0  0  0  0  0  0  0
    8.2130  -13.2635    0.0000 C    0  0  0  0  0  0  0  0  0  0  0  0
    6.8975  -13.4863    0.0000 C    0  0  0  0  0  0  0  0  0  0  0  0
    9.0614  -14.2750    0.0000 C    0  0  0  0  0  0  0  0  0  0  0  0
    6.4411  -14.7370    0.0000 C    0  0  0  0  0  0  0  0  0  0  0  0
    8.6052  -15.5264    0.0000 C    0  0  0  0  0  0  0  0  0  0  0  0
    7.2971  -15.7534    0.0000 C    0  0  0  0  0  0  0  0  0  0  0  0
    6.3944  -12.4078    0.0000 C    0  0  0  0  0  0  0  0  0  0  0  0
    7.4182  -11.5561    0.0000 C    0  0  0  0  0  0  0  0  0  0  0  0
    5.1552  -11.9483    0.0000 C    0  0  0  0  0  0  0  0  0  0  0  0
    7.1911  -10.2480    0.0000 C    0  0  0  0  0  0  0  0  0  0  0  0
    4.9205  -10.6358    0.0000 C    0  0  0  0  0  0  0  0  0  0  0  0
    5.9442   -9.7841    0.0000 C    0  0  0  0  0  0  0  0  0  0  0  0
   12.1751  -12.0718    0.0000 C    0  0  0  0  0  0  0  0  0  0  0  0
   10.9366  -11.6121    0.0000 C    0  0  0  0  0  0  0  0  0  0  0  0
   12.4023  -13.3795    0.0000 C    0  0  0  0  0  0  0  0  0  0  0  0
    9.9203  -12.4687    0.0000 C    0  0  0  0  0  0  0  0  0  0  0  0
   11.3906  -14.2283    0.0000 C    0  0  0  0  0  0  0  0  0  0  0  0
   10.1476  -13.7764    0.0000 C    0  0  0  0  0  0  0  0  0  0  0  0
    9.6661   -9.2929    0.0000 Rh   0  0  0  0  0  0  0  0  0  0  0  0
    8.4154   -8.8365    0.0000 O    0  0  0  0  0  0  0  0  0  0  0  0
    8.1836   -7.5366    0.0000 C    0  0  0  0  0  0  0  0  0  0  0  0
    9.1996   -6.6804    0.0000 O    0  0  0  0  0  0  0  0  0  0  0  0
   15.3143  -11.3670    0.0000 P    0  0  0  0  0  0  0  0  0  0  0  0
    8.6692  -12.0121    0.0000 P    0  0  0  0  0  0  0  0  0  0  0  0
   10.6509   -6.5769    0.0000 P    0  0  0  0  0  0  0  0  0  0  0  0
   18.8325  -11.4234    0.0000 C    0  0  0  0  0  0  0  0  0  0  0  0
   17.5892  -10.9719    0.0000 C    0  0  0  0  0  0  0  0  0  0  0  0
   19.0676  -12.7362    0.0000 C    0  0  0  0  0  0  0  0  0  0  0  0
   16.5654  -11.8236    0.0000 C    0  0  0  0  0  0  0  0  0  0  0  0
   18.0435  -13.5876    0.0000 C    0  0  0  0  0  0  0  0  0  0  0  0
   16.7927  -13.1313    0.0000 C    0  0  0  0  0  0  0  0  0  0  0  0
    6.9329   -7.0842    0.0000 C    0  0  0  0  0  0  0  0  0  0  0  0
    5.9158   -7.9411    0.0000 C    0  0  0  0  0  0  0  0  0  0  0  0
    6.6993   -5.7748    0.0000 C    0  0  0  0  0  0  0  0  0  0  0  0
    4.6650   -7.4886    0.0000 C    0  0  0  0  0  0  0  0  0  0  0  0
    5.4487   -5.3224    0.0000 C    0  0  0  0  0  0  0  0  0  0  0  0
    4.4315   -6.1793    0.0000 C    0  0  0  0  0  0  0  0  0  0  0  0
  1  2  1  0  0  0  0
  1  3  2  0  0  0  0
  2  4  2  0  0  0  0
  3  5  1  0  0  0  0
  4  6  1  0  0  0  0
  5  6  2  0  0  0  0
  7  8  1  0  0  0  0
  7  9  2  0  0  0  0
  8 10  2  0  0  0  0
  9 11  1  0  0  0  0
 10 12  1  0  0  0  0
 11 12  2  0  0  0  0
 13 14  1  0  0  0  0
 13 15  2  0  0  0  0
 14 16  2  0  0  0  0
 15 17  1  0  0  0  0
 16 18  1  0  0  0  0
 17 18  2  0  0  0  0
 19 20  1  0  0  0  0
 19 21  2  0  0  0  0
 20 22  2  0  0  0  0
 21 23  1  0  0  0  0
 22 24  1  0  0  0  0
 23 24  2  0  0  0  0
 25 26  1  0  0  0  0
 25 27  2  0  0  0  0
 26 28  2  0  0  0  0
 27 29  1  0  0  0  0
 28 30  1  0  0  0  0
 29 30  2  0  0  0  0
 31 32  1  0  0  0  0
 31 33  2  0  0  0  0
 32 34  2  0  0  0  0
 33 35  1  0  0  0  0
 34 36  1  0  0  0  0
 35 36  2  0  0  0  0
 37 38  1  0  0  0  0
 37 39  2  0  0  0  0
 38 40  2  0  0  0  0
 39 41  1  0  0  0  0
 40 42  1  0  0  0  0
 41 42  2  0  0  0  0
 43 44  1  0  0  0  0
 43 45  2  0  0  0  0
 44 46  2  0  0  0  0
 45 47  1  0  0  0  0
 46 48  1  0  0  0  0
 47 48  2  0  0  0  0
 49 50  1  0  0  0  0
 50 51  1  0  0  0  0
 51 52  2  0  0  0  0
 49 53  1  0  0  0  0
 49 54  1  0  0  0  0
 49 55  1  0  0  0  0
 46 54  1  0  0  0  0
 38 54  1  0  0  0  0
 31 54  1  0  0  0  0
 56 57  1  0  0  0  0
 56 58  2  0  0  0  0
 57 59  2  0  0  0  0
 58 60  1  0  0  0  0
 59 61  1  0  0  0  0
 60 61  2  0  0  0  0
 53 59  1  0  0  0  0
 30 53  1  0  0  0  0
 24 53  1  0  0  0  0
 15 55  1  0  0  0  0
  9 55  1  0  0  0  0
  1 55  1  0  0  0  0
 62 63  1  0  0  0  0
 62 64  2  0  0  0  0
 63 65  2  0  0  0  0
 64 66  1  0  0  0  0
 65 67  1  0  0  0  0
 66 67  2  0  0  0  0
 51 62  1  0  0  0  0
M  END
> <NMREDATA_VERSION>
1.1

> <NMREDATA_LEVEL>
0

> <NMREDATA_SOLVENT>
toluene-d8

> <NMREDATA_TEMPERATURE>
248

> <NMREDATA_FORMULA>
C61H53O2P3Rh

> <NMREDATA_SMILES>
O=C(c1ccccc1)O[Rh](P(c1ccccc1)(c1ccccc1)c1ccccc1)(P(c1ccccc1)(c1ccccc1)c1ccccc1)P(c1ccccc1)(c1ccccc1)c1ccccc1

> <NMREDATA_ASSIGNMENT>
Rh49, 20.00, 49

> <NMREDATA_1D_103Rh>
20.00, L=Rh49

$$$$

  ACD/LABS03142420032D

 60 66  0  0  0  0  0  0  0  0  2 V2000
   10.9133   -8.7203    0.0000 P    0  0  0  0  0  0  0  0  0  0  0  0
   11.9256   -9.5723    0.0000 C    0  0  0  0  0  0  0  0  0  0  0  0
   11.6945  -10.8861    0.0000 C    0  0  0  0  0  0  0  0  0  0  0  0
   13.1862   -9.1195    0.0000 C    0  0  0  0  0  0  0  0  0  0  0  0
   12.7068  -11.7385    0.0000 C    0  0  0  0  0  0  0  0  0  0  0  0
   14.1982   -9.9805    0.0000 C    0  0  0  0  0  0  0  0  0  0  0  0
   13.9671  -11.2947    0.0000 C    0  0  0  0  0  0  0  0  0  0  0  0
   10.2477   -7.5664    0.0000 C    0  0  0  0  0  0  0  0  0  0  0  0
   11.0998   -6.5455    0.0000 C    0  0  0  0  0  0  0  0  0  0  0  0
    8.9429   -7.3443    0.0000 C    0  0  0  0  0  0  0  0  0  0  0  0
   10.6384   -5.2938    0.0000 C    0  0  0  0  0  0  0  0  0  0  0  0
    8.4815   -6.0927    0.0000 C    0  0  0  0  0  0  0  0  0  0  0  0
    9.3332   -5.0717    0.0000 C    0  0  0  0  0  0  0  0  0  0  0  0
   11.7746   -7.7083    0.0000 C    0  0  0  0  0  0  0  0  0  0  0  0
   13.0795   -7.9394    0.0000 C    0  0  0  0  0  0  0  0  0  0  0  0
   13.9405   -6.9271    0.0000 O    0  0  0  0  0  0  0  0  0  0  0  0
   15.2543   -7.1582    0.0000 C    0  0  0  0  0  0  0  0  0  0  0  0
    7.2029   -9.2173    0.0000 P    0  0  0  0  0  0  0  0  0  0  0  0
    6.9722  -10.5311    0.0000 C    0  0  0  0  0  0  0  0  0  0  0  0
    5.7206  -10.9749    0.0000 C    0  0  0  0  0  0  0  0  0  0  0  0
    7.9842  -11.3835    0.0000 C    0  0  0  0  0  0  0  0  0  0  0  0
    5.4809  -12.2887    0.0000 C    0  0  0  0  0  0  0  0  0  0  0  0
    7.7534  -12.6973    0.0000 C    0  0  0  0  0  0  0  0  0  0  0  0
    6.5018  -13.1501    0.0000 C    0  0  0  0  0  0  0  0  0  0  0  0
    5.8981   -8.9776    0.0000 C    0  0  0  0  0  0  0  0  0  0  0  0
    5.4453   -7.7349    0.0000 C    0  0  0  0  0  0  0  0  0  0  0  0
    5.0371   -9.9985    0.0000 C    0  0  0  0  0  0  0  0  0  0  0  0
    4.1315   -7.5042    0.0000 C    0  0  0  0  0  0  0  0  0  0  0  0
    3.7229   -9.7588    0.0000 C    0  0  0  0  0  0  0  0  0  0  0  0
    3.2705   -8.5162    0.0000 C    0  0  0  0  0  0  0  0  0  0  0  0
    7.6647   -7.9746    0.0000 C    0  0  0  0  0  0  0  0  0  0  0  0
    6.8123   -6.9537    0.0000 C    0  0  0  0  0  0  0  0  0  0  0  0
    7.4782   -5.7998    0.0000 O    0  0  0  0  0  0  0  0  0  0  0  0
    6.8123   -4.6455    0.0000 C    0  0  0  0  0  0  0  0  0  0  0  0
   10.0522   -9.7322    0.0000 Rh   0  3  0  0  0  0  0  0  0  0  0  0
   23.4272  -12.5398    0.0000 C    0  0  0  0  0  0  0  0  0  0  0  0
   24.0922  -13.6916    0.0000 C    0  0  0  0  0  0  0  0  0  0  0  0
   22.0972  -12.5398    0.0000 C    0  0  0  0  0  0  0  0  0  0  0  0
   23.4272  -14.8434    0.0000 C    0  0  0  0  0  0  0  0  0  0  0  0
   21.4322  -13.6916    0.0000 C    0  0  0  0  0  0  0  0  0  0  0  0
   22.0972  -14.8434    0.0000 C    0  0  0  0  0  0  0  0  0  0  0  0
   21.4322  -11.3880    0.0000 B    0  5  0  0  0  0  0  0  0  0  0  0
   22.5840  -10.7230    0.0000 C    0  0  0  0  0  0  0  0  0  0  0  0
   22.5840   -9.3930    0.0000 C    0  0  0  0  0  0  0  0  0  0  0  0
   23.7359  -11.3880    0.0000 C    0  0  0  0  0  0  0  0  0  0  0  0
   23.7359   -8.7280    0.0000 C    0  0  0  0  0  0  0  0  0  0  0  0
   24.8877  -10.7230    0.0000 C    0  0  0  0  0  0  0  0  0  0  0  0
   24.8877   -9.3930    0.0000 C    0  0  0  0  0  0  0  0  0  0  0  0
   20.2804  -12.0530    0.0000 C    0  0  0  0  0  0  0  0  0  0  0  0
   20.2804  -13.3830    0.0000 C    0  0  0  0  0  0  0  0  0  0  0  0
   19.1286  -11.3880    0.0000 C    0  0  0  0  0  0  0  0  0  0  0  0
   19.1286  -14.0480    0.0000 C    0  0  0  0  0  0  0  0  0  0  0  0
   17.9768  -12.0530    0.0000 C    0  0  0  0  0  0  0  0  0  0  0  0
   17.9768  -13.3830    0.0000 C    0  0  0  0  0  0  0  0  0  0  0  0
   20.7672  -10.2362    0.0000 C    0  0  0  0  0  0  0  0  0  0  0  0
   19.4372  -10.2362    0.0000 C    0  0  0  0  0  0  0  0  0  0  0  0
   21.4322   -9.0843    0.0000 C    0  0  0  0  0  0  0  0  0  0  0  0
   18.7722   -9.0843    0.0000 C    0  0  0  0  0  0  0  0  0  0  0  0
   20.7672   -7.9325    0.0000 C    0  0  0  0  0  0  0  0  0  0  0  0
   19.4372   -7.9325    0.0000 C    0  0  0  0  0  0  0  0  0  0  0  0
  2  3  1  0  0  0  0
  2  4  1  0  0  0  0
  3  5  1  0  0  0  0
  4  6  1  0  0  0  0
  5  7  1  0  0  0  0
  6  7  1  0  0  0  0
  1  2  1  0  0  0  0
  8  9  1  0  0  0  0
  8 10  1  0  0  0  0
  9 11  1  0  0  0  0
 10 12  1  0  0  0  0
 11 13  1  0  0  0  0
 12 13  1  0  0  0  0
  1  8  1  0  0  0  0
  1 14  1  0  0  0  0
 14 15  1  0  0  0  0
 15 16  1  0  0  0  0
 16 17  1  0  0  0  0
 19 20  1  0  0  0  0
 19 21  1  0  0  0  0
 20 22  1  0  0  0  0
 21 23  1  0  0  0  0
 22 24  1  0  0  0  0
 23 24  1  0  0  0  0
 18 19  1  0  0  0  0
 25 26  1  0  0  0  0
 25 27  1  0  0  0  0
 26 28  1  0  0  0  0
 27 29  1  0  0  0  0
 28 30  1  0  0  0  0
 29 30  1  0  0  0  0
 18 25  1  0  0  0  0
 18 31  1  0  0  0  0
 31 32  1  0  0  0  0
 32 33  1  0  0  0  0
 33 34  1  0  0  0  0
 18 35  1  0  0  0  0
  1 35  1  0  0  0  0
 36 37  1  0  0  0  0
 36 38  2  0  0  0  0
 37 39  2  0  0  0  0
 38 40  1  0  0  0  0
 39 41  1  0  0  0  0
 40 41  2  0  0  0  0
 43 44  1  0  0  0  0
 43 45  2  0  0  0  0
 44 46  2  0  0  0  0
 45 47  1  0  0  0  0
 46 48  1  0  0  0  0
 47 48  2  0  0  0  0
 42 43  1  0  0  0  0
 49 50  1  0  0  0  0
 49 51  2  0  0  0  0
 50 52  2  0  0  0  0
 51 53  1  0  0  0  0
 52 54  1  0  0  0  0
 53 54  2  0  0  0  0
 42 49  1  0  0  0  0
 55 56  1  0  0  0  0
 55 57  2  0  0  0  0
 56 58  2  0  0  0  0
 57 59  1  0  0  0  0
 58 60  1  0  0  0  0
 59 60  2  0  0  0  0
 42 55  1  0  0  0  0
 38 42  1  0  0  0  0
M  END
> <NMREDATA_VERSION>
1.1

> <NMREDATA_LEVEL>
0

> <NMREDATA_SOLVENT>
CD2Cl2

> <NMREDATA_TEMPERATURE>
243

> <NMREDATA_FORMULA>
C54H80BO2P2Rh

> <NMREDATA_SMILES>
c1ccc(cc1)[B](c1ccccc1)(c1ccccc1)c1ccccc1.COCCP(C1CCCCC1)(C1CCCCC1)[Rh]P(C1CCCCC1)(C1CCCCC1)CCOC

> <NMREDATA_ASSIGNMENT>
Rh35, 65.00, 35

> <NMREDATA_1D_103Rh>
65.00, L=Rh35

$$$$

  ACD/LABS03142420042D

 63 69  0  0  0  0  0  0  0  0  2 V2000
    9.2612   -8.1182    0.0000 P    0  0  0  0  0  0  0  0  0  0  0  0
    8.4042   -7.1011    0.0000 C    0  0  0  0  0  0  0  0  0  0  0  0
    7.0907   -7.3360    0.0000 C    0  0  0  0  0  0  0  0  0  0  0  0
    8.8533   -5.8444    0.0000 C    0  0  0  0  0  0  0  0  0  0  0  0
    6.2337   -6.3189    0.0000 C    0  0  0  0  0  0  0  0  0  0  0  0
    7.9919   -4.8349    0.0000 C    0  0  0  0  0  0  0  0  0  0  0  0
    6.6904   -5.0666    0.0000 C    0  0  0  0  0  0  0  0  0  0  0  0
   11.4784   -9.9716    0.0000 C    0  0  0  0  0  0  0  0  0  0  0  0
   12.6310   -9.3057    0.0000 C    0  0  0  0  0  0  0  0  0  0  0  0
   11.4825  -11.2950    0.0000 C    0  0  0  0  0  0  0  0  0  0  0  0
   13.7833   -9.9710    0.0000 C    0  0  0  0  0  0  0  0  0  0  0  0
   12.6347  -11.9603    0.0000 C    0  0  0  0  0  0  0  0  0  0  0  0
   13.7829  -11.3021    0.0000 C    0  0  0  0  0  0  0  0  0  0  0  0
   10.2783   -7.2612    0.0000 C    0  0  0  0  0  0  0  0  0  0  0  0
   10.0431   -5.9475    0.0000 C    0  0  0  0  0  0  0  0  0  0  0  0
   11.0602   -5.0905    0.0000 O    0  0  0  0  0  0  0  0  0  0  0  0
   10.8252   -3.7772    0.0000 C    0  0  0  0  0  0  0  0  0  0  0  0
    8.4837  -10.2805    0.0000 P    0  0  0  0  0  0  0  0  0  0  0  0
    8.9334  -11.5236    0.0000 C    0  0  0  0  0  0  0  0  0  0  0  0
   10.2473  -11.7493    0.0000 C    0  0  0  0  0  0  0  0  0  0  0  0
    8.0775  -12.5450    0.0000 C    0  0  0  0  0  0  0  0  0  0  0  0
   10.7047  -12.9968    0.0000 C    0  0  0  0  0  0  0  0  0  0  0  0
    8.5427  -13.7970    0.0000 C    0  0  0  0  0  0  0  0  0  0  0  0
    9.8485  -14.0184    0.0000 C    0  0  0  0  0  0  0  0  0  0  0  0
    7.2364  -10.7383    0.0000 C    0  0  0  0  0  0  0  0  0  0  0  0
    7.0072  -12.0399    0.0000 C    0  0  0  0  0  0  0  0  0  0  0  0
    6.2147   -9.8822    0.0000 C    0  0  0  0  0  0  0  0  0  0  0  0
    5.7553  -12.5049    0.0000 C    0  0  0  0  0  0  0  0  0  0  0  0
    4.9673  -10.3399    0.0000 C    0  0  0  0  0  0  0  0  0  0  0  0
    4.7415  -11.6534    0.0000 C    0  0  0  0  0  0  0  0  0  0  0  0
    9.7279   -9.8107    0.0000 C    0  0  0  0  0  0  0  0  0  0  0  0
    9.9603   -8.5218    0.0000 C    0  0  0  0  0  0  0  0  0  0  0  0
   11.1997   -8.0594    0.0000 O    0  0  0  0  0  0  0  0  0  0  0  0
   11.4257   -6.7457    0.0000 C    0  0  0  0  0  0  0  0  0  0  0  0
    8.2488   -8.9669    0.0000 Rh   0  3  0  0  0  0  0  0  0  0  0  0
    6.9997   -8.5225    0.0000 S    0  0  0  0  0  0  0  0  0  0  0  0
    5.7524   -8.9800    0.0000 O    0  0  0  0  0  0  0  0  0  0  0  0
    6.1473   -7.4975    0.0000 O    0  0  0  0  0  0  0  0  0  0  0  0
   23.4272  -12.5398    0.0000 C    0  0  0  0  0  0  0  0  0  0  0  0
   24.0922  -13.6916    0.0000 C    0  0  0  0  0  0  0  0  0  0  0  0
   22.0972  -12.5398    0.0000 C    0  0  0  0  0  0  0  0  0  0  0  0
   23.4272  -14.8434    0.0000 C    0  0  0  0  0  0  0  0  0  0  0  0
   21.4322  -13.6916    0.0000 C    0  0  0  0  0  0  0  0  0  0  0  0
   22.0972  -14.8434    0.0000 C    0  0  0  0  0  0  0  0  0  0  0  0
   21.4322  -11.3880    0.0000 B    0  5  0  0  0  0  0  0  0  0  0  0
   22.5840  -10.7230    0.0000 C    0  0  0  0  0  0  0  0  0  0  0  0
   22.5840   -9.3930    0.0000 C    0  0  0  0  0  0  0  0  0  0  0  0
   23.7359  -11.3880    0.0000 C    0  0  0  0  0  0  0  0  0  0  0  0
   23.7359   -8.7280    0.0000 C    0  0  0  0  0  0  0  0  0  0  0  0
   24.8877  -10.7230    0.0000 C    0  0  0  0  0  0  0  0  0  0  0  0
   24.8877   -9.3930    0.0000 C    0  0  0  0  0  0  0  0  0  0  0  0
   20.2804  -12.0530    0.0000 C    0  0  0  0  0  0  0  0  0  0  0  0
   20.2804  -13.3830    0.0000 C    0  0  0  0  0  0  0  0  0  0  0  0
   19.1286  -11.3880    0.0000 C    0  0  0  0  0  0  0  0  0  0  0  0
   19.1286  -14.0480    0.0000 C    0  0  0  0  0  0  0  0  0  0  0  0
   17.9768  -12.0530    0.0000 C    0  0  0  0  0  0  0  0  0  0  0  0
   17.9768  -13.3830    0.0000 C    0  0  0  0  0  0  0  0  0  0  0  0
   20.7672  -10.2362    0.0000 C    0  0  0  0  0  0  0  0  0  0  0  0
   19.4372  -10.2362    0.0000 C    0  0  0  0  0  0  0  0  0  0  0  0
   21.4322   -9.0843    0.0000 C    0  0  0  0  0  0  0  0  0  0  0  0
   18.7722   -9.0843    0.0000 C    0  0  0  0  0  0  0  0  0  0  0  0
   20.7672   -7.9325    0.0000 C    0  0  0  0  0  0  0  0  0  0  0  0
   19.4372   -7.9325    0.0000 C    0  0  0  0  0  0  0  0  0  0  0  0
  2  3  1  0  0  0  0
  2  4  1  0  0  0  0
  3  5  1  0  0  0  0
  4  6  1  0  0  0  0
  5  7  1  0  0  0  0
  6  7  1  0  0  0  0
  1  2  1  0  0  0  0
  8  9  1  0  0  0  0
  8 10  1  0  0  0  0
  9 11  1  0  0  0  0
 10 12  1  0  0  0  0
 11 13  1  0  0  0  0
 12 13  1  0  0  0  0
  1  8  1  0  0  0  0
  1 14  1  0  0  0  0
 14 15  1  0  0  0  0
 15 16  1  0  0  0  0
 16 17  1  0  0  0  0
 19 20  1  0  0  0  0
 19 21  1  0  0  0  0
 20 22  1  0  0  0  0
 21 23  1  0  0  0  0
 22 24  1  0  0  0  0
 23 24  1  0  0  0  0
 18 19  1  0  0  0  0
 25 26  1  0  0  0  0
 25 27  1  0  0  0  0
 26 28  1  0  0  0  0
 27 29  1  0  0  0  0
 28 30  1  0  0  0  0
 29 30  1  0  0  0  0
 18 25  1  0  0  0  0
 18 31  1  0  0  0  0
 31 32  1  0  0  0  0
 32 33  1  0  0  0  0
 33 34  1  0  0  0  0
 18 35  1  0  0  0  0
  1 35  1  0  0  0  0
 36 37  2  0  0  0  0
 36 38  2  0  0  0  0
 35 36  1  0  0  0  0
 39 40  1  0  0  0  0
 39 41  2  0  0  0  0
 40 42  2  0  0  0  0
 41 43  1  0  0  0  0
 42 44  1  0  0  0  0
 43 44  2  0  0  0  0
 46 47  1  0  0  0  0
 46 48  2  0  0  0  0
 47 49  2  0  0  0  0
 48 50  1  0  0  0  0
 49 51  1  0  0  0  0
 50 51  2  0  0  0  0
 45 46  1  0  0  0  0
 52 53  1  0  0  0  0
 52 54  2  0  0  0  0
 53 55  2  0  0  0  0
 54 56  1  0  0  0  0
 55 57  1  0  0  0  0
 56 57  2  0  0  0  0
 45 52  1  0  0  0  0
 58 59  1  0  0  0  0
 58 60  2  0  0  0  0
 59 61  2  0  0  0  0
 60 62  1  0  0  0  0
 61 63  1  0  0  0  0
 62 63  2  0  0  0  0
 45 58  1  0  0  0  0
 41 45  1  0  0  0  0
M  END
> <NMREDATA_VERSION>
1.1

> <NMREDATA_LEVEL>
0

> <NMREDATA_SOLVENT>
CD2Cl2

> <NMREDATA_TEMPERATURE>
243

> <NMREDATA_FORMULA>
C54H81BO4P2RhS

> <NMREDATA_SMILES>
c1ccc(cc1)[B](c1ccccc1)(c1ccccc1)c1ccccc1.COCCP([Rh](P(C1CCCCC1)(C1CCCCC1)CCOC)S(=O)=O)(C1CCCCC1)C1CCCCC1

> <NMREDATA_ASSIGNMENT>
Rh35, 1950.00, 35

> <NMREDATA_1D_103Rh>
1950.00, L=Rh35

$$$$

  ACD/LABS03142420052D

 39 42  0  0  0  0  0  0  0  0  1 V2000
   10.8332   -9.1061    0.0000 P    0  0  0  0  0  0  0  0  0  0  0  0
   10.1682   -7.9542    0.0000 C    0  0  0  0  0  0  0  0  0  0  0  0
    8.8382   -7.9542    0.0000 C    0  0  0  0  0  0  0  0  0  0  0  0
   10.8332   -6.8024    0.0000 C    0  0  0  0  0  0  0  0  0  0  0  0
    8.1732   -6.8024    0.0000 C    0  0  0  0  0  0  0  0  0  0  0  0
   10.1682   -5.6506    0.0000 C    0  0  0  0  0  0  0  0  0  0  0  0
    8.8382   -5.6506    0.0000 C    0  0  0  0  0  0  0  0  0  0  0  0
    9.6814   -9.7711    0.0000 C    0  0  0  0  0  0  0  0  0  0  0  0
    9.6814  -11.1011    0.0000 C    0  0  0  0  0  0  0  0  0  0  0  0
    8.5296   -9.1061    0.0000 C    0  0  0  0  0  0  0  0  0  0  0  0
    8.5296  -11.7661    0.0000 C    0  0  0  0  0  0  0  0  0  0  0  0
    7.3778   -9.7711    0.0000 C    0  0  0  0  0  0  0  0  0  0  0  0
    7.3778  -11.1011    0.0000 C    0  0  0  0  0  0  0  0  0  0  0  0
   11.9850   -8.4411    0.0000 C    0  0  0  0  0  0  0  0  0  0  0  0
   11.9850   -7.1111    0.0000 C    0  0  0  0  0  0  0  0  0  0  0  0
   13.1368   -6.4461    0.0000 O    0  0  0  0  0  0  0  0  0  0  0  0
   13.1368   -5.1161    0.0000 C    0  0  0  0  0  0  0  0  0  0  0  0
   12.1632  -11.4097    0.0000 P    0  0  0  0  0  0  0  0  0  0  0  0
   13.3150  -10.7447    0.0000 C    0  0  0  0  0  0  0  0  0  0  0  0
   13.3150   -9.4147    0.0000 C    0  0  0  0  0  0  0  0  0  0  0  0
   14.4668  -11.4097    0.0000 C    0  0  0  0  0  0  0  0  0  0  0  0
   14.4668   -8.7497    0.0000 C    0  0  0  0  0  0  0  0  0  0  0  0
   15.6186  -10.7447    0.0000 C    0  0  0  0  0  0  0  0  0  0  0  0
   15.6186   -9.4147    0.0000 C    0  0  0  0  0  0  0  0  0  0  0  0
   11.0114  -12.0747    0.0000 C    0  0  0  0  0  0  0  0  0  0  0  0
   11.0114  -13.4047    0.0000 C    0  0  0  0  0  0  0  0  0  0  0  0
    9.8596  -11.4097    0.0000 C    0  0  0  0  0  0  0  0  0  0  0  0
    9.8596  -14.0697    0.0000 C    0  0  0  0  0  0  0  0  0  0  0  0
    8.7078  -12.0747    0.0000 C    0  0  0  0  0  0  0  0  0  0  0  0
    8.7078  -13.4047    0.0000 C    0  0  0  0  0  0  0  0  0  0  0  0
   12.8282  -12.5615    0.0000 C    0  0  0  0  0  0  0  0  0  0  0  0
   12.1632  -13.7133    0.0000 C    0  0  0  0  0  0  0  0  0  0  0  0
   12.8282  -14.8651    0.0000 O    0  0  0  0  0  0  0  0  0  0  0  0
   12.1632  -16.0169    0.0000 C    0  0  0  0  0  0  0  0  0  0  0  0
   11.4982  -10.2579    0.0000 Rh   0  0  0  0  0  0  0  0  0  0  0  0
   12.6500   -9.5929    0.0000 S    0  0  0  0  0  0  0  0  0  0  0  0
   12.6500   -8.2629    0.0000 O    0  0  0  0  0  0  0  0  0  0  0  0
   13.8018  -10.2579    0.0000 O    0  0  0  0  0  0  0  0  0  0  0  0
   10.3464  -10.9229    0.0000 Cl   0  0  0  0  0  0  0  0  0  0  0  0
  2  3  1  0  0  0  0
  2  4  1  0  0  0  0
  3  5  1  0  0  0  0
  4  6  1  0  0  0  0
  5  7  1  0  0  0  0
  6  7  1  0  0  0  0
  1  2  1  0  0  0  0
  8  9  1  0  0  0  0
  8 10  1  0  0  0  0
  9 11  1  0  0  0  0
 10 12  1  0  0  0  0
 11 13  1  0  0  0  0
 12 13  1  0  0  0  0
  1  8  1  0  0  0  0
  1 14  1  0  0  0  0
 14 15  1  0  0  0  0
 15 16  1  0  0  0  0
 16 17  1  0  0  0  0
 19 20  1  0  0  0  0
 19 21  1  0  0  0  0
 20 22  1  0  0  0  0
 21 23  1  0  0  0  0
 22 24  1  0  0  0  0
 23 24  1  0  0  0  0
 18 19  1  0  0  0  0
 25 26  1  0  0  0  0
 25 27  1  0  0  0  0
 26 28  1  0  0  0  0
 27 29  1  0  0  0  0
 28 30  1  0  0  0  0
 29 30  1  0  0  0  0
 18 25  1  0  0  0  0
 18 31  1  0  0  0  0
 31 32  1  0  0  0  0
 32 33  1  0  0  0  0
 33 34  1  0  0  0  0
 18 35  1  0  0  0  0
  1 35  1  0  0  0  0
 36 37  2  0  0  0  0
 36 38  2  0  0  0  0
 35 36  1  0  0  0  0
 35 39  1  0  0  0  0
M  END
> <NMREDATA_VERSION>
1.1

> <NMREDATA_LEVEL>
0

> <NMREDATA_SOLVENT>
CD2Cl2

> <NMREDATA_TEMPERATURE>
295

> <NMREDATA_FORMULA>
C30H61ClO4P2RhS

> <NMREDATA_SMILES>
COCCP([Rh](P(C1CCCCC1)(C1CCCCC1)CCOC)(S(=O)=O)Cl)(C1CCCCC1)C1CCCCC1

> <NMREDATA_ASSIGNMENT>
Rh35, 1650.00, 35

> <NMREDATA_1D_103Rh>
1650.00, L=Rh35

$$$$

  ACD/LABS03152412482D

 59 67  0  0  0  0  0  0  0  0  1 V2000
   14.0821  -17.1558    0.0000 C    0  0  0  0  0  0  0  0  0  0  0  0
   12.8310  -17.6015    0.0000 C    0  0  0  0  0  0  0  0  0  0  0  0
   14.3157  -15.8464    0.0000 C    0  0  0  0  0  0  0  0  0  0  0  0
   11.8095  -16.7453    0.0000 C    0  0  0  0  0  0  0  0  0  0  0  0
   13.2981  -14.9825    0.0000 C    0  0  0  0  0  0  0  0  0  0  0  0
   12.0505  -15.4401    0.0000 C    0  0  0  0  0  0  0  0  0  0  0  0
   17.4634  -14.3861    0.0000 C    0  0  0  0  0  0  0  0  0  0  0  0
   16.6118  -15.3997    0.0000 C    0  0  0  0  0  0  0  0  0  0  0  0
   17.0131  -13.1432    0.0000 C    0  0  0  0  0  0  0  0  0  0  0  0
   15.2948  -15.1619    0.0000 C    0  0  0  0  0  0  0  0  0  0  0  0
   15.6961  -12.9053    0.0000 C    0  0  0  0  0  0  0  0  0  0  0  0
   14.8490  -13.9111    0.0000 C    0  0  0  0  0  0  0  0  0  0  0  0
   12.4613   -3.3040    0.0000 C    0  0  0  0  0  0  0  0  0  0  0  0
   11.2105   -3.7493    0.0000 C    0  0  0  0  0  0  0  0  0  0  0  0
   13.4830   -4.1598    0.0000 C    0  0  0  0  0  0  0  0  0  0  0  0
   10.9769   -5.0587    0.0000 C    0  0  0  0  0  0  0  0  0  0  0  0
   13.2420   -5.4650    0.0000 C    0  0  0  0  0  0  0  0  0  0  0  0
   11.9944   -5.9226    0.0000 C    0  0  0  0  0  0  0  0  0  0  0  0
    8.2822   -7.7744    0.0000 C    0  0  0  0  0  0  0  0  0  0  0  0
    9.5872   -8.0158    0.0000 C    0  0  0  0  0  0  0  0  0  0  0  0
    7.8246   -6.5268    0.0000 C    0  0  0  0  0  0  0  0  0  0  0  0
   10.4436   -6.9940    0.0000 C    0  0  0  0  0  0  0  0  0  0  0  0
    8.6808   -5.5054    0.0000 C    0  0  0  0  0  0  0  0  0  0  0  0
    9.9977   -5.7432    0.0000 C    0  0  0  0  0  0  0  0  0  0  0  0
   13.9216   -6.4518    0.0000 C    0  0  0  0  0  0  0  0  0  0  0  0
   13.0623   -7.4615    0.0000 C    0  0  0  0  0  0  0  0  0  0  0  0
   15.2233   -6.6808    0.0000 C    0  0  0  0  0  0  0  0  0  0  0  0
   13.5156   -8.7165    0.0000 C    0  0  0  0  0  0  0  0  0  0  0  0
   15.6766   -7.9359    0.0000 C    0  0  0  0  0  0  0  0  0  0  0  0
   14.8169   -8.9454    0.0000 C    0  0  0  0  0  0  0  0  0  0  0  0
    7.2109  -13.7112    0.0000 C    0  0  0  0  0  0  0  0  0  0  0  0
    8.0747  -12.6937    0.0000 C    0  0  0  0  0  0  0  0  0  0  0  0
    5.9014  -13.4776    0.0000 C    0  0  0  0  0  0  0  0  0  0  0  0
    7.6169  -11.4465    0.0000 C    0  0  0  0  0  0  0  0  0  0  0  0
    5.4479  -12.2220    0.0000 C    0  0  0  0  0  0  0  0  0  0  0  0
    6.3119  -11.2051    0.0000 C    0  0  0  0  0  0  0  0  0  0  0  0
    9.6132  -11.6256    0.0000 C    0  0  0  0  0  0  0  0  0  0  0  0
   10.7737  -10.9639    0.0000 C    0  0  0  0  0  0  0  0  0  0  0  0
    8.4651  -10.9528    0.0000 C    0  0  0  0  0  0  0  0  0  0  0  0
   10.7696   -9.6407    0.0000 C    0  0  0  0  0  0  0  0  0  0  0  0
    8.4780   -9.6181    0.0000 C    0  0  0  0  0  0  0  0  0  0  0  0
    9.6217   -8.9675    0.0000 C    0  0  0  0  0  0  0  0  0  0  0  0
    7.8369  -14.4720    0.0000 C    0  0  0  0  0  0  0  0  0  0  0  0
    7.3723  -15.7201    0.0000 C    0  0  0  0  0  0  0  0  0  0  0  0
    9.1461  -14.2445    0.0000 C    0  0  0  0  0  0  0  0  0  0  0  0
    8.2295  -16.7370    0.0000 C    0  0  0  0  0  0  0  0  0  0  0  0
    9.9949  -15.2571    0.0000 C    0  0  0  0  0  0  0  0  0  0  0  0
    9.5304  -16.5051    0.0000 C    0  0  0  0  0  0  0  0  0  0  0  0
   10.6892  -13.1686    0.0000 Rh   0  0  0  0  0  0  0  0  0  0  0  0
   10.4474  -14.4734    0.0000 Cl   0  0  0  0  0  0  0  0  0  0  0  0
   11.7530   -7.2276    0.0000 P    0  0  0  0  0  0  0  0  0  0  0  0
    9.3797  -12.9351    0.0000 P    0  0  0  0  0  0  0  0  0  0  0  0
   13.5395  -13.6776    0.0000 P    0  0  0  0  0  0  0  0  0  0  0  0
   12.7561  -11.5041    0.0000 C    0  0  0  0  0  0  0  0  0  0  0  0
   12.9850  -10.2028    0.0000 C    0  0  0  0  0  0  0  0  0  0  0  0
   13.7731  -12.3681    0.0000 C    0  0  0  0  0  0  0  0  0  0  0  0
   14.2357   -9.7569    0.0000 C    0  0  0  0  0  0  0  0  0  0  0  0
   15.0240  -11.9228    0.0000 C    0  0  0  0  0  0  0  0  0  0  0  0
   15.2575  -10.6133    0.0000 C    0  0  0  0  0  0  0  0  0  0  0  0
  1  2  1  0  0  0  0
  1  3  2  0  0  0  0
  2  4  2  0  0  0  0
  3  5  1  0  0  0  0
  4  6  1  0  0  0  0
  5  6  2  0  0  0  0
  7  8  1  0  0  0  0
  7  9  2  0  0  0  0
  8 10  2  0  0  0  0
  9 11  1  0  0  0  0
 10 12  1  0  0  0  0
 11 12  2  0  0  0  0
 13 14  1  0  0  0  0
 13 15  2  0  0  0  0
 14 16  2  0  0  0  0
 15 17  1  0  0  0  0
 16 18  1  0  0  0  0
 17 18  2  0  0  0  0
 19 20  1  0  0  0  0
 19 21  2  0  0  0  0
 20 22  2  0  0  0  0
 21 23  1  0  0  0  0
 22 24  1  0  0  0  0
 23 24  2  0  0  0  0
 25 26  1  0  0  0  0
 25 27  2  0  0  0  0
 26 28  2  0  0  0  0
 27 29  1  0  0  0  0
 28 30  1  0  0  0  0
 29 30  2  0  0  0  0
 31 32  1  0  0  0  0
 31 33  2  0  0  0  0
 32 34  2  0  0  0  0
 33 35  1  0  0  0  0
 34 36  1  0  0  0  0
 35 36  2  0  0  0  0
 37 38  1  0  0  0  0
 37 39  2  0  0  0  0
 38 40  2  0  0  0  0
 39 41  1  0  0  0  0
 40 42  1  0  0  0  0
 41 42  2  0  0  0  0
 43 44  1  0  0  0  0
 43 45  2  0  0  0  0
 44 46  2  0  0  0  0
 45 47  1  0  0  0  0
 46 48  1  0  0  0  0
 47 48  2  0  0  0  0
 49 50  1  0  0  0  0
 49 51  1  0  0  0  0
 49 52  1  0  0  0  0
 49 53  1  0  0  0  0
 45 52  1  0  0  0  0
 37 52  1  0  0  0  0
 32 52  1  0  0  0  0
 26 51  1  0  0  0  0
 22 51  1  0  0  0  0
 18 51  1  0  0  0  0
 12 53  1  0  0  0  0
  5 53  1  0  0  0  0
 54 55  1  0  0  0  0
 54 56  2  0  0  0  0
 55 57  2  0  0  0  0
 56 58  1  0  0  0  0
 57 59  1  0  0  0  0
 58 59  2  0  0  0  0
 53 56  1  0  0  0  0
M  END
> <NMREDATA_VERSION>
1.1

> <NMREDATA_LEVEL>
0

> <NMREDATA_SOLVENT>
CD2Cl2

> <NMREDATA_TEMPERATURE>
305

> <NMREDATA_FORMULA>
C54H48ClP3Rh

> <NMREDATA_SMILES>
Cl[Rh](P(c1ccccc1)(c1ccccc1)c1ccccc1)(P(c1ccccc1)(c1ccccc1)c1ccccc1)P(c1ccccc1)(c1ccccc1)c1ccccc1

> <NMREDATA_ASSIGNMENT>
Rh49, -81.00, 49

> <NMREDATA_1D_103Rh>
-81.00, L=Rh49

$$$$

  ACD/LABS03152412482D

 59 67  0  0  0  0  0  0  0  0  1 V2000
   14.0821  -17.1558    0.0000 C    0  0  0  0  0  0  0  0  0  0  0  0
   12.8310  -17.6015    0.0000 C    0  0  0  0  0  0  0  0  0  0  0  0
   14.3157  -15.8464    0.0000 C    0  0  0  0  0  0  0  0  0  0  0  0
   11.8095  -16.7453    0.0000 C    0  0  0  0  0  0  0  0  0  0  0  0
   13.2981  -14.9825    0.0000 C    0  0  0  0  0  0  0  0  0  0  0  0
   12.0505  -15.4401    0.0000 C    0  0  0  0  0  0  0  0  0  0  0  0
   17.4634  -14.3861    0.0000 C    0  0  0  0  0  0  0  0  0  0  0  0
   16.6118  -15.3997    0.0000 C    0  0  0  0  0  0  0  0  0  0  0  0
   17.0131  -13.1432    0.0000 C    0  0  0  0  0  0  0  0  0  0  0  0
   15.2948  -15.1619    0.0000 C    0  0  0  0  0  0  0  0  0  0  0  0
   15.6961  -12.9053    0.0000 C    0  0  0  0  0  0  0  0  0  0  0  0
   14.8490  -13.9111    0.0000 C    0  0  0  0  0  0  0  0  0  0  0  0
   12.4613   -3.3040    0.0000 C    0  0  0  0  0  0  0  0  0  0  0  0
   11.2105   -3.7493    0.0000 C    0  0  0  0  0  0  0  0  0  0  0  0
   13.4830   -4.1598    0.0000 C    0  0  0  0  0  0  0  0  0  0  0  0
   10.9769   -5.0587    0.0000 C    0  0  0  0  0  0  0  0  0  0  0  0
   13.2420   -5.4650    0.0000 C    0  0  0  0  0  0  0  0  0  0  0  0
   11.9944   -5.9226    0.0000 C    0  0  0  0  0  0  0  0  0  0  0  0
    8.2822   -7.7744    0.0000 C    0  0  0  0  0  0  0  0  0  0  0  0
    9.5872   -8.0158    0.0000 C    0  0  0  0  0  0  0  0  0  0  0  0
    7.8246   -6.5268    0.0000 C    0  0  0  0  0  0  0  0  0  0  0  0
   10.4436   -6.9940    0.0000 C    0  0  0  0  0  0  0  0  0  0  0  0
    8.6808   -5.5054    0.0000 C    0  0  0  0  0  0  0  0  0  0  0  0
    9.9977   -5.7432    0.0000 C    0  0  0  0  0  0  0  0  0  0  0  0
   13.9216   -6.4518    0.0000 C    0  0  0  0  0  0  0  0  0  0  0  0
   13.0623   -7.4615    0.0000 C    0  0  0  0  0  0  0  0  0  0  0  0
   15.2233   -6.6808    0.0000 C    0  0  0  0  0  0  0  0  0  0  0  0
   13.5156   -8.7165    0.0000 C    0  0  0  0  0  0  0  0  0  0  0  0
   15.6766   -7.9359    0.0000 C    0  0  0  0  0  0  0  0  0  0  0  0
   14.8169   -8.9454    0.0000 C    0  0  0  0  0  0  0  0  0  0  0  0
    7.2109  -13.7112    0.0000 C    0  0  0  0  0  0  0  0  0  0  0  0
    8.0747  -12.6937    0.0000 C    0  0  0  0  0  0  0  0  0  0  0  0
    5.9014  -13.4776    0.0000 C    0  0  0  0  0  0  0  0  0  0  0  0
    7.6169  -11.4465    0.0000 C    0  0  0  0  0  0  0  0  0  0  0  0
    5.4479  -12.2220    0.0000 C    0  0  0  0  0  0  0  0  0  0  0  0
    6.3119  -11.2051    0.0000 C    0  0  0  0  0  0  0  0  0  0  0  0
    9.6132  -11.6256    0.0000 C    0  0  0  0  0  0  0  0  0  0  0  0
   10.7737  -10.9639    0.0000 C    0  0  0  0  0  0  0  0  0  0  0  0
    8.4651  -10.9528    0.0000 C    0  0  0  0  0  0  0  0  0  0  0  0
   10.7696   -9.6407    0.0000 C    0  0  0  0  0  0  0  0  0  0  0  0
    8.4780   -9.6181    0.0000 C    0  0  0  0  0  0  0  0  0  0  0  0
    9.6217   -8.9675    0.0000 C    0  0  0  0  0  0  0  0  0  0  0  0
    7.8369  -14.4720    0.0000 C    0  0  0  0  0  0  0  0  0  0  0  0
    7.3723  -15.7201    0.0000 C    0  0  0  0  0  0  0  0  0  0  0  0
    9.1461  -14.2445    0.0000 C    0  0  0  0  0  0  0  0  0  0  0  0
    8.2295  -16.7370    0.0000 C    0  0  0  0  0  0  0  0  0  0  0  0
    9.9949  -15.2571    0.0000 C    0  0  0  0  0  0  0  0  0  0  0  0
    9.5304  -16.5051    0.0000 C    0  0  0  0  0  0  0  0  0  0  0  0
   10.6892  -13.1686    0.0000 Rh   0  0  0  0  0  0  0  0  0  0  0  0
   10.4474  -14.4734    0.0000 Cl   0  0  0  0  0  0  0  0  0  0  0  0
   11.7530   -7.2276    0.0000 P    0  0  0  0  0  0  0  0  0  0  0  0
    9.3797  -12.9351    0.0000 P    0  0  0  0  0  0  0  0  0  0  0  0
   13.5395  -13.6776    0.0000 P    0  0  0  0  0  0  0  0  0  0  0  0
   12.7561  -11.5041    0.0000 C    0  0  0  0  0  0  0  0  0  0  0  0
   12.9850  -10.2028    0.0000 C    0  0  0  0  0  0  0  0  0  0  0  0
   13.7731  -12.3681    0.0000 C    0  0  0  0  0  0  0  0  0  0  0  0
   14.2357   -9.7569    0.0000 C    0  0  0  0  0  0  0  0  0  0  0  0
   15.0240  -11.9228    0.0000 C    0  0  0  0  0  0  0  0  0  0  0  0
   15.2575  -10.6133    0.0000 C    0  0  0  0  0  0  0  0  0  0  0  0
  1  2  1  0  0  0  0
  1  3  2  0  0  0  0
  2  4  2  0  0  0  0
  3  5  1  0  0  0  0
  4  6  1  0  0  0  0
  5  6  2  0  0  0  0
  7  8  1  0  0  0  0
  7  9  2  0  0  0  0
  8 10  2  0  0  0  0
  9 11  1  0  0  0  0
 10 12  1  0  0  0  0
 11 12  2  0  0  0  0
 13 14  1  0  0  0  0
 13 15  2  0  0  0  0
 14 16  2  0  0  0  0
 15 17  1  0  0  0  0
 16 18  1  0  0  0  0
 17 18  2  0  0  0  0
 19 20  1  0  0  0  0
 19 21  2  0  0  0  0
 20 22  2  0  0  0  0
 21 23  1  0  0  0  0
 22 24  1  0  0  0  0
 23 24  2  0  0  0  0
 25 26  1  0  0  0  0
 25 27  2  0  0  0  0
 26 28  2  0  0  0  0
 27 29  1  0  0  0  0
 28 30  1  0  0  0  0
 29 30  2  0  0  0  0
 31 32  1  0  0  0  0
 31 33  2  0  0  0  0
 32 34  2  0  0  0  0
 33 35  1  0  0  0  0
 34 36  1  0  0  0  0
 35 36  2  0  0  0  0
 37 38  1  0  0  0  0
 37 39  2  0  0  0  0
 38 40  2  0  0  0  0
 39 41  1  0  0  0  0
 40 42  1  0  0  0  0
 41 42  2  0  0  0  0
 43 44  1  0  0  0  0
 43 45  2  0  0  0  0
 44 46  2  0  0  0  0
 45 47  1  0  0  0  0
 46 48  1  0  0  0  0
 47 48  2  0  0  0  0
 49 50  1  0  0  0  0
 49 51  1  0  0  0  0
 49 52  1  0  0  0  0
 49 53  1  0  0  0  0
 45 52  1  0  0  0  0
 37 52  1  0  0  0  0
 32 52  1  0  0  0  0
 26 51  1  0  0  0  0
 22 51  1  0  0  0  0
 18 51  1  0  0  0  0
 12 53  1  0  0  0  0
  5 53  1  0  0  0  0
 54 55  1  0  0  0  0
 54 56  2  0  0  0  0
 55 57  2  0  0  0  0
 56 58  1  0  0  0  0
 57 59  1  0  0  0  0
 58 59  2  0  0  0  0
 53 56  1  0  0  0  0
M  END
> <NMREDATA_VERSION>
1.1

> <NMREDATA_LEVEL>
0

> <NMREDATA_SOLVENT>
DCCl3

> <NMREDATA_TEMPERATURE>
300

> <NMREDATA_FORMULA>
C54H48ClP3Rh

> <NMREDATA_SMILES>
Cl[Rh](P(c1ccccc1)(c1ccccc1)c1ccccc1)(P(c1ccccc1)(c1ccccc1)c1ccccc1)P(c1ccccc1)(c1ccccc1)c1ccccc1

> <NMREDATA_ASSIGNMENT>
Rh49, -19.00, 49

> <NMREDATA_1D_103Rh>
-19.00, L=Rh49

$$$$

  ACD/LABS03152412482D

 59 67  0  0  0  0  0  0  0  0  1 V2000
   14.0821  -17.1558    0.0000 C    0  0  0  0  0  0  0  0  0  0  0  0
   12.8310  -17.6015    0.0000 C    0  0  0  0  0  0  0  0  0  0  0  0
   14.3157  -15.8464    0.0000 C    0  0  0  0  0  0  0  0  0  0  0  0
   11.8095  -16.7453    0.0000 C    0  0  0  0  0  0  0  0  0  0  0  0
   13.2981  -14.9825    0.0000 C    0  0  0  0  0  0  0  0  0  0  0  0
   12.0505  -15.4401    0.0000 C    0  0  0  0  0  0  0  0  0  0  0  0
   17.4634  -14.3861    0.0000 C    0  0  0  0  0  0  0  0  0  0  0  0
   16.6118  -15.3997    0.0000 C    0  0  0  0  0  0  0  0  0  0  0  0
   17.0131  -13.1432    0.0000 C    0  0  0  0  0  0  0  0  0  0  0  0
   15.2948  -15.1619    0.0000 C    0  0  0  0  0  0  0  0  0  0  0  0
   15.6961  -12.9053    0.0000 C    0  0  0  0  0  0  0  0  0  0  0  0
   14.8490  -13.9111    0.0000 C    0  0  0  0  0  0  0  0  0  0  0  0
   12.4613   -3.3040    0.0000 C    0  0  0  0  0  0  0  0  0  0  0  0
   11.2105   -3.7493    0.0000 C    0  0  0  0  0  0  0  0  0  0  0  0
   13.4830   -4.1598    0.0000 C    0  0  0  0  0  0  0  0  0  0  0  0
   10.9769   -5.0587    0.0000 C    0  0  0  0  0  0  0  0  0  0  0  0
   13.2420   -5.4650    0.0000 C    0  0  0  0  0  0  0  0  0  0  0  0
   11.9944   -5.9226    0.0000 C    0  0  0  0  0  0  0  0  0  0  0  0
    8.2822   -7.7744    0.0000 C    0  0  0  0  0  0  0  0  0  0  0  0
    9.5872   -8.0158    0.0000 C    0  0  0  0  0  0  0  0  0  0  0  0
    7.8246   -6.5268    0.0000 C    0  0  0  0  0  0  0  0  0  0  0  0
   10.4436   -6.9940    0.0000 C    0  0  0  0  0  0  0  0  0  0  0  0
    8.6808   -5.5054    0.0000 C    0  0  0  0  0  0  0  0  0  0  0  0
    9.9977   -5.7432    0.0000 C    0  0  0  0  0  0  0  0  0  0  0  0
   13.9216   -6.4518    0.0000 C    0  0  0  0  0  0  0  0  0  0  0  0
   13.0623   -7.4615    0.0000 C    0  0  0  0  0  0  0  0  0  0  0  0
   15.2233   -6.6808    0.0000 C    0  0  0  0  0  0  0  0  0  0  0  0
   13.5156   -8.7165    0.0000 C    0  0  0  0  0  0  0  0  0  0  0  0
   15.6766   -7.9359    0.0000 C    0  0  0  0  0  0  0  0  0  0  0  0
   14.8169   -8.9454    0.0000 C    0  0  0  0  0  0  0  0  0  0  0  0
    7.2109  -13.7112    0.0000 C    0  0  0  0  0  0  0  0  0  0  0  0
    8.0747  -12.6937    0.0000 C    0  0  0  0  0  0  0  0  0  0  0  0
    5.9014  -13.4776    0.0000 C    0  0  0  0  0  0  0  0  0  0  0  0
    7.6169  -11.4465    0.0000 C    0  0  0  0  0  0  0  0  0  0  0  0
    5.4479  -12.2220    0.0000 C    0  0  0  0  0  0  0  0  0  0  0  0
    6.3119  -11.2051    0.0000 C    0  0  0  0  0  0  0  0  0  0  0  0
    9.6132  -11.6256    0.0000 C    0  0  0  0  0  0  0  0  0  0  0  0
   10.7737  -10.9639    0.0000 C    0  0  0  0  0  0  0  0  0  0  0  0
    8.4651  -10.9528    0.0000 C    0  0  0  0  0  0  0  0  0  0  0  0
   10.7696   -9.6407    0.0000 C    0  0  0  0  0  0  0  0  0  0  0  0
    8.4780   -9.6181    0.0000 C    0  0  0  0  0  0  0  0  0  0  0  0
    9.6217   -8.9675    0.0000 C    0  0  0  0  0  0  0  0  0  0  0  0
    7.8369  -14.4720    0.0000 C    0  0  0  0  0  0  0  0  0  0  0  0
    7.3723  -15.7201    0.0000 C    0  0  0  0  0  0  0  0  0  0  0  0
    9.1461  -14.2445    0.0000 C    0  0  0  0  0  0  0  0  0  0  0  0
    8.2295  -16.7370    0.0000 C    0  0  0  0  0  0  0  0  0  0  0  0
    9.9949  -15.2571    0.0000 C    0  0  0  0  0  0  0  0  0  0  0  0
    9.5304  -16.5051    0.0000 C    0  0  0  0  0  0  0  0  0  0  0  0
   10.6892  -13.1686    0.0000 Rh   0  0  0  0  0  0  0  0  0  0  0  0
   10.4474  -14.4734    0.0000 Cl   0  0  0  0  0  0  0  0  0  0  0  0
   11.7530   -7.2276    0.0000 P    0  0  0  0  0  0  0  0  0  0  0  0
    9.3797  -12.9351    0.0000 P    0  0  0  0  0  0  0  0  0  0  0  0
   13.5395  -13.6776    0.0000 P    0  0  0  0  0  0  0  0  0  0  0  0
   12.7561  -11.5041    0.0000 C    0  0  0  0  0  0  0  0  0  0  0  0
   12.9850  -10.2028    0.0000 C    0  0  0  0  0  0  0  0  0  0  0  0
   13.7731  -12.3681    0.0000 C    0  0  0  0  0  0  0  0  0  0  0  0
   14.2357   -9.7569    0.0000 C    0  0  0  0  0  0  0  0  0  0  0  0
   15.0240  -11.9228    0.0000 C    0  0  0  0  0  0  0  0  0  0  0  0
   15.2575  -10.6133    0.0000 C    0  0  0  0  0  0  0  0  0  0  0  0
  1  2  1  0  0  0  0
  1  3  2  0  0  0  0
  2  4  2  0  0  0  0
  3  5  1  0  0  0  0
  4  6  1  0  0  0  0
  5  6  2  0  0  0  0
  7  8  1  0  0  0  0
  7  9  2  0  0  0  0
  8 10  2  0  0  0  0
  9 11  1  0  0  0  0
 10 12  1  0  0  0  0
 11 12  2  0  0  0  0
 13 14  1  0  0  0  0
 13 15  2  0  0  0  0
 14 16  2  0  0  0  0
 15 17  1  0  0  0  0
 16 18  1  0  0  0  0
 17 18  2  0  0  0  0
 19 20  1  0  0  0  0
 19 21  2  0  0  0  0
 20 22  2  0  0  0  0
 21 23  1  0  0  0  0
 22 24  1  0  0  0  0
 23 24  2  0  0  0  0
 25 26  1  0  0  0  0
 25 27  2  0  0  0  0
 26 28  2  0  0  0  0
 27 29  1  0  0  0  0
 28 30  1  0  0  0  0
 29 30  2  0  0  0  0
 31 32  1  0  0  0  0
 31 33  2  0  0  0  0
 32 34  2  0  0  0  0
 33 35  1  0  0  0  0
 34 36  1  0  0  0  0
 35 36  2  0  0  0  0
 37 38  1  0  0  0  0
 37 39  2  0  0  0  0
 38 40  2  0  0  0  0
 39 41  1  0  0  0  0
 40 42  1  0  0  0  0
 41 42  2  0  0  0  0
 43 44  1  0  0  0  0
 43 45  2  0  0  0  0
 44 46  2  0  0  0  0
 45 47  1  0  0  0  0
 46 48  1  0  0  0  0
 47 48  2  0  0  0  0
 49 50  1  0  0  0  0
 49 51  1  0  0  0  0
 49 52  1  0  0  0  0
 49 53  1  0  0  0  0
 45 52  1  0  0  0  0
 37 52  1  0  0  0  0
 32 52  1  0  0  0  0
 26 51  1  0  0  0  0
 22 51  1  0  0  0  0
 18 51  1  0  0  0  0
 12 53  1  0  0  0  0
  5 53  1  0  0  0  0
 54 55  1  0  0  0  0
 54 56  2  0  0  0  0
 55 57  2  0  0  0  0
 56 58  1  0  0  0  0
 57 59  1  0  0  0  0
 58 59  2  0  0  0  0
 53 56  1  0  0  0  0
M  END
> <NMREDATA_VERSION>
1.1

> <NMREDATA_LEVEL>
0

> <NMREDATA_SOLVENT>
DCCl3

> <NMREDATA_TEMPERATURE>
247

> <NMREDATA_FORMULA>
C54H48ClP3Rh

> <NMREDATA_SMILES>
Cl[Rh](P(c1ccccc1)(c1ccccc1)c1ccccc1)(P(c1ccccc1)(c1ccccc1)c1ccccc1)P(c1ccccc1)(c1ccccc1)c1ccccc1

> <NMREDATA_ASSIGNMENT>
Rh49, -18.00, 49

> <NMREDATA_1D_103Rh>
-18.00, L=Rh49

$$$$

  ACD/LABS03152412492D

 59 67  0  0  0  0  0  0  0  0  1 V2000
   14.0821  -17.1558    0.0000 C    0  0  0  0  0  0  0  0  0  0  0  0
   12.8310  -17.6015    0.0000 C    0  0  0  0  0  0  0  0  0  0  0  0
   14.3157  -15.8464    0.0000 C    0  0  0  0  0  0  0  0  0  0  0  0
   11.8095  -16.7453    0.0000 C    0  0  0  0  0  0  0  0  0  0  0  0
   13.2981  -14.9825    0.0000 C    0  0  0  0  0  0  0  0  0  0  0  0
   12.0505  -15.4401    0.0000 C    0  0  0  0  0  0  0  0  0  0  0  0
   17.4634  -14.3861    0.0000 C    0  0  0  0  0  0  0  0  0  0  0  0
   16.6118  -15.3997    0.0000 C    0  0  0  0  0  0  0  0  0  0  0  0
   17.0131  -13.1432    0.0000 C    0  0  0  0  0  0  0  0  0  0  0  0
   15.2948  -15.1619    0.0000 C    0  0  0  0  0  0  0  0  0  0  0  0
   15.6961  -12.9053    0.0000 C    0  0  0  0  0  0  0  0  0  0  0  0
   14.8490  -13.9111    0.0000 C    0  0  0  0  0  0  0  0  0  0  0  0
   12.4613   -3.3040    0.0000 C    0  0  0  0  0  0  0  0  0  0  0  0
   11.2105   -3.7493    0.0000 C    0  0  0  0  0  0  0  0  0  0  0  0
   13.4830   -4.1598    0.0000 C    0  0  0  0  0  0  0  0  0  0  0  0
   10.9769   -5.0587    0.0000 C    0  0  0  0  0  0  0  0  0  0  0  0
   13.2420   -5.4650    0.0000 C    0  0  0  0  0  0  0  0  0  0  0  0
   11.9944   -5.9226    0.0000 C    0  0  0  0  0  0  0  0  0  0  0  0
    8.2822   -7.7744    0.0000 C    0  0  0  0  0  0  0  0  0  0  0  0
    9.5872   -8.0158    0.0000 C    0  0  0  0  0  0  0  0  0  0  0  0
    7.8246   -6.5268    0.0000 C    0  0  0  0  0  0  0  0  0  0  0  0
   10.4436   -6.9940    0.0000 C    0  0  0  0  0  0  0  0  0  0  0  0
    8.6808   -5.5054    0.0000 C    0  0  0  0  0  0  0  0  0  0  0  0
    9.9977   -5.7432    0.0000 C    0  0  0  0  0  0  0  0  0  0  0  0
   13.9216   -6.4518    0.0000 C    0  0  0  0  0  0  0  0  0  0  0  0
   13.0623   -7.4615    0.0000 C    0  0  0  0  0  0  0  0  0  0  0  0
   15.2233   -6.6808    0.0000 C    0  0  0  0  0  0  0  0  0  0  0  0
   13.5156   -8.7165    0.0000 C    0  0  0  0  0  0  0  0  0  0  0  0
   15.6766   -7.9359    0.0000 C    0  0  0  0  0  0  0  0  0  0  0  0
   14.8169   -8.9454    0.0000 C    0  0  0  0  0  0  0  0  0  0  0  0
    7.2109  -13.7112    0.0000 C    0  0  0  0  0  0  0  0  0  0  0  0
    8.0747  -12.6937    0.0000 C    0  0  0  0  0  0  0  0  0  0  0  0
    5.9014  -13.4776    0.0000 C    0  0  0  0  0  0  0  0  0  0  0  0
    7.6169  -11.4465    0.0000 C    0  0  0  0  0  0  0  0  0  0  0  0
    5.4479  -12.2220    0.0000 C    0  0  0  0  0  0  0  0  0  0  0  0
    6.3119  -11.2051    0.0000 C    0  0  0  0  0  0  0  0  0  0  0  0
    9.6132  -11.6256    0.0000 C    0  0  0  0  0  0  0  0  0  0  0  0
   10.7737  -10.9639    0.0000 C    0  0  0  0  0  0  0  0  0  0  0  0
    8.4651  -10.9528    0.0000 C    0  0  0  0  0  0  0  0  0  0  0  0
   10.7696   -9.6407    0.0000 C    0  0  0  0  0  0  0  0  0  0  0  0
    8.4780   -9.6181    0.0000 C    0  0  0  0  0  0  0  0  0  0  0  0
    9.6217   -8.9675    0.0000 C    0  0  0  0  0  0  0  0  0  0  0  0
    7.8369  -14.4720    0.0000 C    0  0  0  0  0  0  0  0  0  0  0  0
    7.3723  -15.7201    0.0000 C    0  0  0  0  0  0  0  0  0  0  0  0
    9.1461  -14.2445    0.0000 C    0  0  0  0  0  0  0  0  0  0  0  0
    8.2295  -16.7370    0.0000 C    0  0  0  0  0  0  0  0  0  0  0  0
    9.9949  -15.2571    0.0000 C    0  0  0  0  0  0  0  0  0  0  0  0
    9.5304  -16.5051    0.0000 C    0  0  0  0  0  0  0  0  0  0  0  0
   10.6892  -13.1686    0.0000 Rh   0  0  0  0  0  0  0  0  0  0  0  0
   10.4474  -14.4734    0.0000 Cl   0  0  0  0  0  0  0  0  0  0  0  0
   11.7530   -7.2276    0.0000 P    0  0  0  0  0  0  0  0  0  0  0  0
    9.3797  -12.9351    0.0000 P    0  0  0  0  0  0  0  0  0  0  0  0
   13.5395  -13.6776    0.0000 P    0  0  0  0  0  0  0  0  0  0  0  0
   12.7561  -11.5041    0.0000 C    0  0  0  0  0  0  0  0  0  0  0  0
   12.9850  -10.2028    0.0000 C    0  0  0  0  0  0  0  0  0  0  0  0
   13.7731  -12.3681    0.0000 C    0  0  0  0  0  0  0  0  0  0  0  0
   14.2357   -9.7569    0.0000 C    0  0  0  0  0  0  0  0  0  0  0  0
   15.0240  -11.9228    0.0000 C    0  0  0  0  0  0  0  0  0  0  0  0
   15.2575  -10.6133    0.0000 C    0  0  0  0  0  0  0  0  0  0  0  0
  1  2  1  0  0  0  0
  1  3  2  0  0  0  0
  2  4  2  0  0  0  0
  3  5  1  0  0  0  0
  4  6  1  0  0  0  0
  5  6  2  0  0  0  0
  7  8  1  0  0  0  0
  7  9  2  0  0  0  0
  8 10  2  0  0  0  0
  9 11  1  0  0  0  0
 10 12  1  0  0  0  0
 11 12  2  0  0  0  0
 13 14  1  0  0  0  0
 13 15  2  0  0  0  0
 14 16  2  0  0  0  0
 15 17  1  0  0  0  0
 16 18  1  0  0  0  0
 17 18  2  0  0  0  0
 19 20  1  0  0  0  0
 19 21  2  0  0  0  0
 20 22  2  0  0  0  0
 21 23  1  0  0  0  0
 22 24  1  0  0  0  0
 23 24  2  0  0  0  0
 25 26  1  0  0  0  0
 25 27  2  0  0  0  0
 26 28  2  0  0  0  0
 27 29  1  0  0  0  0
 28 30  1  0  0  0  0
 29 30  2  0  0  0  0
 31 32  1  0  0  0  0
 31 33  2  0  0  0  0
 32 34  2  0  0  0  0
 33 35  1  0  0  0  0
 34 36  1  0  0  0  0
 35 36  2  0  0  0  0
 37 38  1  0  0  0  0
 37 39  2  0  0  0  0
 38 40  2  0  0  0  0
 39 41  1  0  0  0  0
 40 42  1  0  0  0  0
 41 42  2  0  0  0  0
 43 44  1  0  0  0  0
 43 45  2  0  0  0  0
 44 46  2  0  0  0  0
 45 47  1  0  0  0  0
 46 48  1  0  0  0  0
 47 48  2  0  0  0  0
 49 50  1  0  0  0  0
 49 51  1  0  0  0  0
 49 52  1  0  0  0  0
 49 53  1  0  0  0  0
 45 52  1  0  0  0  0
 37 52  1  0  0  0  0
 32 52  1  0  0  0  0
 26 51  1  0  0  0  0
 22 51  1  0  0  0  0
 18 51  1  0  0  0  0
 12 53  1  0  0  0  0
  5 53  1  0  0  0  0
 54 55  1  0  0  0  0
 54 56  2  0  0  0  0
 55 57  2  0  0  0  0
 56 58  1  0  0  0  0
 57 59  1  0  0  0  0
 58 59  2  0  0  0  0
 53 56  1  0  0  0  0
M  END
> <NMREDATA_VERSION>
1.1

> <NMREDATA_LEVEL>
0

> <NMREDATA_SOLVENT>
CD2Cl2

> <NMREDATA_TEMPERATURE>
300

> <NMREDATA_FORMULA>
C54H48ClP3Rh

> <NMREDATA_SMILES>
Cl[Rh](P(c1ccccc1)(c1ccccc1)c1ccccc1)(P(c1ccccc1)(c1ccccc1)c1ccccc1)P(c1ccccc1)(c1ccccc1)c1ccccc1

> <NMREDATA_ASSIGNMENT>
Rh49, -82.00, 49

> <NMREDATA_1D_103Rh>
-82.00, L=Rh49

$$$$

  ACD/LABS03152412492D

 59 67  0  0  0  0  0  0  0  0  1 V2000
   14.0821  -17.1558    0.0000 C    0  0  0  0  0  0  0  0  0  0  0  0
   12.8310  -17.6015    0.0000 C    0  0  0  0  0  0  0  0  0  0  0  0
   14.3157  -15.8464    0.0000 C    0  0  0  0  0  0  0  0  0  0  0  0
   11.8095  -16.7453    0.0000 C    0  0  0  0  0  0  0  0  0  0  0  0
   13.2981  -14.9825    0.0000 C    0  0  0  0  0  0  0  0  0  0  0  0
   12.0505  -15.4401    0.0000 C    0  0  0  0  0  0  0  0  0  0  0  0
   17.4634  -14.3861    0.0000 C    0  0  0  0  0  0  0  0  0  0  0  0
   16.6118  -15.3997    0.0000 C    0  0  0  0  0  0  0  0  0  0  0  0
   17.0131  -13.1432    0.0000 C    0  0  0  0  0  0  0  0  0  0  0  0
   15.2948  -15.1619    0.0000 C    0  0  0  0  0  0  0  0  0  0  0  0
   15.6961  -12.9053    0.0000 C    0  0  0  0  0  0  0  0  0  0  0  0
   14.8490  -13.9111    0.0000 C    0  0  0  0  0  0  0  0  0  0  0  0
   12.4613   -3.3040    0.0000 C    0  0  0  0  0  0  0  0  0  0  0  0
   11.2105   -3.7493    0.0000 C    0  0  0  0  0  0  0  0  0  0  0  0
   13.4830   -4.1598    0.0000 C    0  0  0  0  0  0  0  0  0  0  0  0
   10.9769   -5.0587    0.0000 C    0  0  0  0  0  0  0  0  0  0  0  0
   13.2420   -5.4650    0.0000 C    0  0  0  0  0  0  0  0  0  0  0  0
   11.9944   -5.9226    0.0000 C    0  0  0  0  0  0  0  0  0  0  0  0
    8.2822   -7.7744    0.0000 C    0  0  0  0  0  0  0  0  0  0  0  0
    9.5872   -8.0158    0.0000 C    0  0  0  0  0  0  0  0  0  0  0  0
    7.8246   -6.5268    0.0000 C    0  0  0  0  0  0  0  0  0  0  0  0
   10.4436   -6.9940    0.0000 C    0  0  0  0  0  0  0  0  0  0  0  0
    8.6808   -5.5054    0.0000 C    0  0  0  0  0  0  0  0  0  0  0  0
    9.9977   -5.7432    0.0000 C    0  0  0  0  0  0  0  0  0  0  0  0
   13.9216   -6.4518    0.0000 C    0  0  0  0  0  0  0  0  0  0  0  0
   13.0623   -7.4615    0.0000 C    0  0  0  0  0  0  0  0  0  0  0  0
   15.2233   -6.6808    0.0000 C    0  0  0  0  0  0  0  0  0  0  0  0
   13.5156   -8.7165    0.0000 C    0  0  0  0  0  0  0  0  0  0  0  0
   15.6766   -7.9359    0.0000 C    0  0  0  0  0  0  0  0  0  0  0  0
   14.8169   -8.9454    0.0000 C    0  0  0  0  0  0  0  0  0  0  0  0
    7.2109  -13.7112    0.0000 C    0  0  0  0  0  0  0  0  0  0  0  0
    8.0747  -12.6937    0.0000 C    0  0  0  0  0  0  0  0  0  0  0  0
    5.9014  -13.4776    0.0000 C    0  0  0  0  0  0  0  0  0  0  0  0
    7.6169  -11.4465    0.0000 C    0  0  0  0  0  0  0  0  0  0  0  0
    5.4479  -12.2220    0.0000 C    0  0  0  0  0  0  0  0  0  0  0  0
    6.3119  -11.2051    0.0000 C    0  0  0  0  0  0  0  0  0  0  0  0
    9.6132  -11.6256    0.0000 C    0  0  0  0  0  0  0  0  0  0  0  0
   10.7737  -10.9639    0.0000 C    0  0  0  0  0  0  0  0  0  0  0  0
    8.4651  -10.9528    0.0000 C    0  0  0  0  0  0  0  0  0  0  0  0
   10.7696   -9.6407    0.0000 C    0  0  0  0  0  0  0  0  0  0  0  0
    8.4780   -9.6181    0.0000 C    0  0  0  0  0  0  0  0  0  0  0  0
    9.6217   -8.9675    0.0000 C    0  0  0  0  0  0  0  0  0  0  0  0
    7.8369  -14.4720    0.0000 C    0  0  0  0  0  0  0  0  0  0  0  0
    7.3723  -15.7201    0.0000 C    0  0  0  0  0  0  0  0  0  0  0  0
    9.1461  -14.2445    0.0000 C    0  0  0  0  0  0  0  0  0  0  0  0
    8.2295  -16.7370    0.0000 C    0  0  0  0  0  0  0  0  0  0  0  0
    9.9949  -15.2571    0.0000 C    0  0  0  0  0  0  0  0  0  0  0  0
    9.5304  -16.5051    0.0000 C    0  0  0  0  0  0  0  0  0  0  0  0
   10.6892  -13.1686    0.0000 Rh   0  0  0  0  0  0  0  0  0  0  0  0
   10.4474  -14.4734    0.0000 Cl   0  0  0  0  0  0  0  0  0  0  0  0
   11.7530   -7.2276    0.0000 P    0  0  0  0  0  0  0  0  0  0  0  0
    9.3797  -12.9351    0.0000 P    0  0  0  0  0  0  0  0  0  0  0  0
   13.5395  -13.6776    0.0000 P    0  0  0  0  0  0  0  0  0  0  0  0
   12.7561  -11.5041    0.0000 C    0  0  0  0  0  0  0  0  0  0  0  0
   12.9850  -10.2028    0.0000 C    0  0  0  0  0  0  0  0  0  0  0  0
   13.7731  -12.3681    0.0000 C    0  0  0  0  0  0  0  0  0  0  0  0
   14.2357   -9.7569    0.0000 C    0  0  0  0  0  0  0  0  0  0  0  0
   15.0240  -11.9228    0.0000 C    0  0  0  0  0  0  0  0  0  0  0  0
   15.2575  -10.6133    0.0000 C    0  0  0  0  0  0  0  0  0  0  0  0
  1  2  1  0  0  0  0
  1  3  2  0  0  0  0
  2  4  2  0  0  0  0
  3  5  1  0  0  0  0
  4  6  1  0  0  0  0
  5  6  2  0  0  0  0
  7  8  1  0  0  0  0
  7  9  2  0  0  0  0
  8 10  2  0  0  0  0
  9 11  1  0  0  0  0
 10 12  1  0  0  0  0
 11 12  2  0  0  0  0
 13 14  1  0  0  0  0
 13 15  2  0  0  0  0
 14 16  2  0  0  0  0
 15 17  1  0  0  0  0
 16 18  1  0  0  0  0
 17 18  2  0  0  0  0
 19 20  1  0  0  0  0
 19 21  2  0  0  0  0
 20 22  2  0  0  0  0
 21 23  1  0  0  0  0
 22 24  1  0  0  0  0
 23 24  2  0  0  0  0
 25 26  1  0  0  0  0
 25 27  2  0  0  0  0
 26 28  2  0  0  0  0
 27 29  1  0  0  0  0
 28 30  1  0  0  0  0
 29 30  2  0  0  0  0
 31 32  1  0  0  0  0
 31 33  2  0  0  0  0
 32 34  2  0  0  0  0
 33 35  1  0  0  0  0
 34 36  1  0  0  0  0
 35 36  2  0  0  0  0
 37 38  1  0  0  0  0
 37 39  2  0  0  0  0
 38 40  2  0  0  0  0
 39 41  1  0  0  0  0
 40 42  1  0  0  0  0
 41 42  2  0  0  0  0
 43 44  1  0  0  0  0
 43 45  2  0  0  0  0
 44 46  2  0  0  0  0
 45 47  1  0  0  0  0
 46 48  1  0  0  0  0
 47 48  2  0  0  0  0
 49 50  1  0  0  0  0
 49 51  1  0  0  0  0
 49 52  1  0  0  0  0
 49 53  1  0  0  0  0
 45 52  1  0  0  0  0
 37 52  1  0  0  0  0
 32 52  1  0  0  0  0
 26 51  1  0  0  0  0
 22 51  1  0  0  0  0
 18 51  1  0  0  0  0
 12 53  1  0  0  0  0
  5 53  1  0  0  0  0
 54 55  1  0  0  0  0
 54 56  2  0  0  0  0
 55 57  2  0  0  0  0
 56 58  1  0  0  0  0
 57 59  1  0  0  0  0
 58 59  2  0  0  0  0
 53 56  1  0  0  0  0
M  END
> <NMREDATA_VERSION>
1.1

> <NMREDATA_LEVEL>
0

> <NMREDATA_SOLVENT>
CD2Cl2

> <NMREDATA_TEMPERATURE>
247

> <NMREDATA_FORMULA>
C54H48ClP3Rh

> <NMREDATA_SMILES>
Cl[Rh](P(c1ccccc1)(c1ccccc1)c1ccccc1)(P(c1ccccc1)(c1ccccc1)c1ccccc1)P(c1ccccc1)(c1ccccc1)c1ccccc1

> <NMREDATA_ASSIGNMENT>
Rh49, -106.00, 49

> <NMREDATA_1D_103Rh>
-106.00, L=Rh49

$$$$

  ACD/LABS03152412492D

 59 67  0  0  0  0  0  0  0  0  1 V2000
   14.0821  -17.1558    0.0000 C    0  0  0  0  0  0  0  0  0  0  0  0
   12.8310  -17.6015    0.0000 C    0  0  0  0  0  0  0  0  0  0  0  0
   14.3157  -15.8464    0.0000 C    0  0  0  0  0  0  0  0  0  0  0  0
   11.8095  -16.7453    0.0000 C    0  0  0  0  0  0  0  0  0  0  0  0
   13.2981  -14.9825    0.0000 C    0  0  0  0  0  0  0  0  0  0  0  0
   12.0505  -15.4401    0.0000 C    0  0  0  0  0  0  0  0  0  0  0  0
   17.4634  -14.3861    0.0000 C    0  0  0  0  0  0  0  0  0  0  0  0
   16.6118  -15.3997    0.0000 C    0  0  0  0  0  0  0  0  0  0  0  0
   17.0131  -13.1432    0.0000 C    0  0  0  0  0  0  0  0  0  0  0  0
   15.2948  -15.1619    0.0000 C    0  0  0  0  0  0  0  0  0  0  0  0
   15.6961  -12.9053    0.0000 C    0  0  0  0  0  0  0  0  0  0  0  0
   14.8490  -13.9111    0.0000 C    0  0  0  0  0  0  0  0  0  0  0  0
   12.4613   -3.3040    0.0000 C    0  0  0  0  0  0  0  0  0  0  0  0
   11.2105   -3.7493    0.0000 C    0  0  0  0  0  0  0  0  0  0  0  0
   13.4830   -4.1598    0.0000 C    0  0  0  0  0  0  0  0  0  0  0  0
   10.9769   -5.0587    0.0000 C    0  0  0  0  0  0  0  0  0  0  0  0
   13.2420   -5.4650    0.0000 C    0  0  0  0  0  0  0  0  0  0  0  0
   11.9944   -5.9226    0.0000 C    0  0  0  0  0  0  0  0  0  0  0  0
    8.2822   -7.7744    0.0000 C    0  0  0  0  0  0  0  0  0  0  0  0
    9.5872   -8.0158    0.0000 C    0  0  0  0  0  0  0  0  0  0  0  0
    7.8246   -6.5268    0.0000 C    0  0  0  0  0  0  0  0  0  0  0  0
   10.4436   -6.9940    0.0000 C    0  0  0  0  0  0  0  0  0  0  0  0
    8.6808   -5.5054    0.0000 C    0  0  0  0  0  0  0  0  0  0  0  0
    9.9977   -5.7432    0.0000 C    0  0  0  0  0  0  0  0  0  0  0  0
   13.9216   -6.4518    0.0000 C    0  0  0  0  0  0  0  0  0  0  0  0
   13.0623   -7.4615    0.0000 C    0  0  0  0  0  0  0  0  0  0  0  0
   15.2233   -6.6808    0.0000 C    0  0  0  0  0  0  0  0  0  0  0  0
   13.5156   -8.7165    0.0000 C    0  0  0  0  0  0  0  0  0  0  0  0
   15.6766   -7.9359    0.0000 C    0  0  0  0  0  0  0  0  0  0  0  0
   14.8169   -8.9454    0.0000 C    0  0  0  0  0  0  0  0  0  0  0  0
    7.2109  -13.7112    0.0000 C    0  0  0  0  0  0  0  0  0  0  0  0
    8.0747  -12.6937    0.0000 C    0  0  0  0  0  0  0  0  0  0  0  0
    5.9014  -13.4776    0.0000 C    0  0  0  0  0  0  0  0  0  0  0  0
    7.6169  -11.4465    0.0000 C    0  0  0  0  0  0  0  0  0  0  0  0
    5.4479  -12.2220    0.0000 C    0  0  0  0  0  0  0  0  0  0  0  0
    6.3119  -11.2051    0.0000 C    0  0  0  0  0  0  0  0  0  0  0  0
    9.6132  -11.6256    0.0000 C    0  0  0  0  0  0  0  0  0  0  0  0
   10.7737  -10.9639    0.0000 C    0  0  0  0  0  0  0  0  0  0  0  0
    8.4651  -10.9528    0.0000 C    0  0  0  0  0  0  0  0  0  0  0  0
   10.7696   -9.6407    0.0000 C    0  0  0  0  0  0  0  0  0  0  0  0
    8.4780   -9.6181    0.0000 C    0  0  0  0  0  0  0  0  0  0  0  0
    9.6217   -8.9675    0.0000 C    0  0  0  0  0  0  0  0  0  0  0  0
    7.8369  -14.4720    0.0000 C    0  0  0  0  0  0  0  0  0  0  0  0
    7.3723  -15.7201    0.0000 C    0  0  0  0  0  0  0  0  0  0  0  0
    9.1461  -14.2445    0.0000 C    0  0  0  0  0  0  0  0  0  0  0  0
    8.2295  -16.7370    0.0000 C    0  0  0  0  0  0  0  0  0  0  0  0
    9.9949  -15.2571    0.0000 C    0  0  0  0  0  0  0  0  0  0  0  0
    9.5304  -16.5051    0.0000 C    0  0  0  0  0  0  0  0  0  0  0  0
   10.6892  -13.1686    0.0000 Rh   0  0  0  0  0  0  0  0  0  0  0  0
   10.4474  -14.4734    0.0000 Cl   0  0  0  0  0  0  0  0  0  0  0  0
   11.7530   -7.2276    0.0000 P    0  0  0  0  0  0  0  0  0  0  0  0
    9.3797  -12.9351    0.0000 P    0  0  0  0  0  0  0  0  0  0  0  0
   13.5395  -13.6776    0.0000 P    0  0  0  0  0  0  0  0  0  0  0  0
   12.7561  -11.5041    0.0000 C    0  0  0  0  0  0  0  0  0  0  0  0
   12.9850  -10.2028    0.0000 C    0  0  0  0  0  0  0  0  0  0  0  0
   13.7731  -12.3681    0.0000 C    0  0  0  0  0  0  0  0  0  0  0  0
   14.2357   -9.7569    0.0000 C    0  0  0  0  0  0  0  0  0  0  0  0
   15.0240  -11.9228    0.0000 C    0  0  0  0  0  0  0  0  0  0  0  0
   15.2575  -10.6133    0.0000 C    0  0  0  0  0  0  0  0  0  0  0  0
  1  2  1  0  0  0  0
  1  3  2  0  0  0  0
  2  4  2  0  0  0  0
  3  5  1  0  0  0  0
  4  6  1  0  0  0  0
  5  6  2  0  0  0  0
  7  8  1  0  0  0  0
  7  9  2  0  0  0  0
  8 10  2  0  0  0  0
  9 11  1  0  0  0  0
 10 12  1  0  0  0  0
 11 12  2  0  0  0  0
 13 14  1  0  0  0  0
 13 15  2  0  0  0  0
 14 16  2  0  0  0  0
 15 17  1  0  0  0  0
 16 18  1  0  0  0  0
 17 18  2  0  0  0  0
 19 20  1  0  0  0  0
 19 21  2  0  0  0  0
 20 22  2  0  0  0  0
 21 23  1  0  0  0  0
 22 24  1  0  0  0  0
 23 24  2  0  0  0  0
 25 26  1  0  0  0  0
 25 27  2  0  0  0  0
 26 28  2  0  0  0  0
 27 29  1  0  0  0  0
 28 30  1  0  0  0  0
 29 30  2  0  0  0  0
 31 32  1  0  0  0  0
 31 33  2  0  0  0  0
 32 34  2  0  0  0  0
 33 35  1  0  0  0  0
 34 36  1  0  0  0  0
 35 36  2  0  0  0  0
 37 38  1  0  0  0  0
 37 39  2  0  0  0  0
 38 40  2  0  0  0  0
 39 41  1  0  0  0  0
 40 42  1  0  0  0  0
 41 42  2  0  0  0  0
 43 44  1  0  0  0  0
 43 45  2  0  0  0  0
 44 46  2  0  0  0  0
 45 47  1  0  0  0  0
 46 48  1  0  0  0  0
 47 48  2  0  0  0  0
 49 50  1  0  0  0  0
 49 51  1  0  0  0  0
 49 52  1  0  0  0  0
 49 53  1  0  0  0  0
 45 52  1  0  0  0  0
 37 52  1  0  0  0  0
 32 52  1  0  0  0  0
 26 51  1  0  0  0  0
 22 51  1  0  0  0  0
 18 51  1  0  0  0  0
 12 53  1  0  0  0  0
  5 53  1  0  0  0  0
 54 55  1  0  0  0  0
 54 56  2  0  0  0  0
 55 57  2  0  0  0  0
 56 58  1  0  0  0  0
 57 59  1  0  0  0  0
 58 59  2  0  0  0  0
 53 56  1  0  0  0  0
M  END
> <NMREDATA_VERSION>
1.1

> <NMREDATA_LEVEL>
0

> <NMREDATA_SOLVENT>
toluene-d8

> <NMREDATA_TEMPERATURE>
300

> <NMREDATA_FORMULA>
C54H48ClP3Rh

> <NMREDATA_SMILES>
Cl[Rh](P(c1ccccc1)(c1ccccc1)c1ccccc1)(P(c1ccccc1)(c1ccccc1)c1ccccc1)P(c1ccccc1)(c1ccccc1)c1ccccc1

> <NMREDATA_ASSIGNMENT>
Rh49, -49.00, 49

> <NMREDATA_1D_103Rh>
-49.00, L=Rh49

$$$$

  ACD/LABS03152412492D

 59 67  0  0  0  0  0  0  0  0  1 V2000
   14.0821  -17.1558    0.0000 C    0  0  0  0  0  0  0  0  0  0  0  0
   12.8310  -17.6015    0.0000 C    0  0  0  0  0  0  0  0  0  0  0  0
   14.3157  -15.8464    0.0000 C    0  0  0  0  0  0  0  0  0  0  0  0
   11.8095  -16.7453    0.0000 C    0  0  0  0  0  0  0  0  0  0  0  0
   13.2981  -14.9825    0.0000 C    0  0  0  0  0  0  0  0  0  0  0  0
   12.0505  -15.4401    0.0000 C    0  0  0  0  0  0  0  0  0  0  0  0
   17.4634  -14.3861    0.0000 C    0  0  0  0  0  0  0  0  0  0  0  0
   16.6118  -15.3997    0.0000 C    0  0  0  0  0  0  0  0  0  0  0  0
   17.0131  -13.1432    0.0000 C    0  0  0  0  0  0  0  0  0  0  0  0
   15.2948  -15.1619    0.0000 C    0  0  0  0  0  0  0  0  0  0  0  0
   15.6961  -12.9053    0.0000 C    0  0  0  0  0  0  0  0  0  0  0  0
   14.8490  -13.9111    0.0000 C    0  0  0  0  0  0  0  0  0  0  0  0
   12.4613   -3.3040    0.0000 C    0  0  0  0  0  0  0  0  0  0  0  0
   11.2105   -3.7493    0.0000 C    0  0  0  0  0  0  0  0  0  0  0  0
   13.4830   -4.1598    0.0000 C    0  0  0  0  0  0  0  0  0  0  0  0
   10.9769   -5.0587    0.0000 C    0  0  0  0  0  0  0  0  0  0  0  0
   13.2420   -5.4650    0.0000 C    0  0  0  0  0  0  0  0  0  0  0  0
   11.9944   -5.9226    0.0000 C    0  0  0  0  0  0  0  0  0  0  0  0
    8.2822   -7.7744    0.0000 C    0  0  0  0  0  0  0  0  0  0  0  0
    9.5872   -8.0158    0.0000 C    0  0  0  0  0  0  0  0  0  0  0  0
    7.8246   -6.5268    0.0000 C    0  0  0  0  0  0  0  0  0  0  0  0
   10.4436   -6.9940    0.0000 C    0  0  0  0  0  0  0  0  0  0  0  0
    8.6808   -5.5054    0.0000 C    0  0  0  0  0  0  0  0  0  0  0  0
    9.9977   -5.7432    0.0000 C    0  0  0  0  0  0  0  0  0  0  0  0
   13.9216   -6.4518    0.0000 C    0  0  0  0  0  0  0  0  0  0  0  0
   13.0623   -7.4615    0.0000 C    0  0  0  0  0  0  0  0  0  0  0  0
   15.2233   -6.6808    0.0000 C    0  0  0  0  0  0  0  0  0  0  0  0
   13.5156   -8.7165    0.0000 C    0  0  0  0  0  0  0  0  0  0  0  0
   15.6766   -7.9359    0.0000 C    0  0  0  0  0  0  0  0  0  0  0  0
   14.8169   -8.9454    0.0000 C    0  0  0  0  0  0  0  0  0  0  0  0
    7.2109  -13.7112    0.0000 C    0  0  0  0  0  0  0  0  0  0  0  0
    8.0747  -12.6937    0.0000 C    0  0  0  0  0  0  0  0  0  0  0  0
    5.9014  -13.4776    0.0000 C    0  0  0  0  0  0  0  0  0  0  0  0
    7.6169  -11.4465    0.0000 C    0  0  0  0  0  0  0  0  0  0  0  0
    5.4479  -12.2220    0.0000 C    0  0  0  0  0  0  0  0  0  0  0  0
    6.3119  -11.2051    0.0000 C    0  0  0  0  0  0  0  0  0  0  0  0
    9.6132  -11.6256    0.0000 C    0  0  0  0  0  0  0  0  0  0  0  0
   10.7737  -10.9639    0.0000 C    0  0  0  0  0  0  0  0  0  0  0  0
    8.4651  -10.9528    0.0000 C    0  0  0  0  0  0  0  0  0  0  0  0
   10.7696   -9.6407    0.0000 C    0  0  0  0  0  0  0  0  0  0  0  0
    8.4780   -9.6181    0.0000 C    0  0  0  0  0  0  0  0  0  0  0  0
    9.6217   -8.9675    0.0000 C    0  0  0  0  0  0  0  0  0  0  0  0
    7.8369  -14.4720    0.0000 C    0  0  0  0  0  0  0  0  0  0  0  0
    7.3723  -15.7201    0.0000 C    0  0  0  0  0  0  0  0  0  0  0  0
    9.1461  -14.2445    0.0000 C    0  0  0  0  0  0  0  0  0  0  0  0
    8.2295  -16.7370    0.0000 C    0  0  0  0  0  0  0  0  0  0  0  0
    9.9949  -15.2571    0.0000 C    0  0  0  0  0  0  0  0  0  0  0  0
    9.5304  -16.5051    0.0000 C    0  0  0  0  0  0  0  0  0  0  0  0
   10.6892  -13.1686    0.0000 Rh   0  0  0  0  0  0  0  0  0  0  0  0
   10.4474  -14.4734    0.0000 Cl   0  0  0  0  0  0  0  0  0  0  0  0
   11.7530   -7.2276    0.0000 P    0  0  0  0  0  0  0  0  0  0  0  0
    9.3797  -12.9351    0.0000 P    0  0  0  0  0  0  0  0  0  0  0  0
   13.5395  -13.6776    0.0000 P    0  0  0  0  0  0  0  0  0  0  0  0
   12.7561  -11.5041    0.0000 C    0  0  0  0  0  0  0  0  0  0  0  0
   12.9850  -10.2028    0.0000 C    0  0  0  0  0  0  0  0  0  0  0  0
   13.7731  -12.3681    0.0000 C    0  0  0  0  0  0  0  0  0  0  0  0
   14.2357   -9.7569    0.0000 C    0  0  0  0  0  0  0  0  0  0  0  0
   15.0240  -11.9228    0.0000 C    0  0  0  0  0  0  0  0  0  0  0  0
   15.2575  -10.6133    0.0000 C    0  0  0  0  0  0  0  0  0  0  0  0
  1  2  1  0  0  0  0
  1  3  2  0  0  0  0
  2  4  2  0  0  0  0
  3  5  1  0  0  0  0
  4  6  1  0  0  0  0
  5  6  2  0  0  0  0
  7  8  1  0  0  0  0
  7  9  2  0  0  0  0
  8 10  2  0  0  0  0
  9 11  1  0  0  0  0
 10 12  1  0  0  0  0
 11 12  2  0  0  0  0
 13 14  1  0  0  0  0
 13 15  2  0  0  0  0
 14 16  2  0  0  0  0
 15 17  1  0  0  0  0
 16 18  1  0  0  0  0
 17 18  2  0  0  0  0
 19 20  1  0  0  0  0
 19 21  2  0  0  0  0
 20 22  2  0  0  0  0
 21 23  1  0  0  0  0
 22 24  1  0  0  0  0
 23 24  2  0  0  0  0
 25 26  1  0  0  0  0
 25 27  2  0  0  0  0
 26 28  2  0  0  0  0
 27 29  1  0  0  0  0
 28 30  1  0  0  0  0
 29 30  2  0  0  0  0
 31 32  1  0  0  0  0
 31 33  2  0  0  0  0
 32 34  2  0  0  0  0
 33 35  1  0  0  0  0
 34 36  1  0  0  0  0
 35 36  2  0  0  0  0
 37 38  1  0  0  0  0
 37 39  2  0  0  0  0
 38 40  2  0  0  0  0
 39 41  1  0  0  0  0
 40 42  1  0  0  0  0
 41 42  2  0  0  0  0
 43 44  1  0  0  0  0
 43 45  2  0  0  0  0
 44 46  2  0  0  0  0
 45 47  1  0  0  0  0
 46 48  1  0  0  0  0
 47 48  2  0  0  0  0
 49 50  1  0  0  0  0
 49 51  1  0  0  0  0
 49 52  1  0  0  0  0
 49 53  1  0  0  0  0
 45 52  1  0  0  0  0
 37 52  1  0  0  0  0
 32 52  1  0  0  0  0
 26 51  1  0  0  0  0
 22 51  1  0  0  0  0
 18 51  1  0  0  0  0
 12 53  1  0  0  0  0
  5 53  1  0  0  0  0
 54 55  1  0  0  0  0
 54 56  2  0  0  0  0
 55 57  2  0  0  0  0
 56 58  1  0  0  0  0
 57 59  1  0  0  0  0
 58 59  2  0  0  0  0
 53 56  1  0  0  0  0
M  END
> <NMREDATA_VERSION>
1.1

> <NMREDATA_LEVEL>
0

> <NMREDATA_SOLVENT>
toluene-d8

> <NMREDATA_TEMPERATURE>
247

> <NMREDATA_FORMULA>
C54H48ClP3Rh

> <NMREDATA_SMILES>
Cl[Rh](P(c1ccccc1)(c1ccccc1)c1ccccc1)(P(c1ccccc1)(c1ccccc1)c1ccccc1)P(c1ccccc1)(c1ccccc1)c1ccccc1

> <NMREDATA_ASSIGNMENT>
Rh49, -49.00, 49

> <NMREDATA_1D_103Rh>
-49.00, L=Rh49

$$$$

  ACD/LABS03152412492D

 59 67  0  0  0  0  0  0  0  0  1 V2000
   14.0821  -17.1558    0.0000 C    0  0  0  0  0  0  0  0  0  0  0  0
   12.8310  -17.6015    0.0000 C    0  0  0  0  0  0  0  0  0  0  0  0
   14.3157  -15.8464    0.0000 C    0  0  0  0  0  0  0  0  0  0  0  0
   11.8095  -16.7453    0.0000 C    0  0  0  0  0  0  0  0  0  0  0  0
   13.2981  -14.9825    0.0000 C    0  0  0  0  0  0  0  0  0  0  0  0
   12.0505  -15.4401    0.0000 C    0  0  0  0  0  0  0  0  0  0  0  0
   17.4634  -14.3861    0.0000 C    0  0  0  0  0  0  0  0  0  0  0  0
   16.6118  -15.3997    0.0000 C    0  0  0  0  0  0  0  0  0  0  0  0
   17.0131  -13.1432    0.0000 C    0  0  0  0  0  0  0  0  0  0  0  0
   15.2948  -15.1619    0.0000 C    0  0  0  0  0  0  0  0  0  0  0  0
   15.6961  -12.9053    0.0000 C    0  0  0  0  0  0  0  0  0  0  0  0
   14.8490  -13.9111    0.0000 C    0  0  0  0  0  0  0  0  0  0  0  0
   12.4613   -3.3040    0.0000 C    0  0  0  0  0  0  0  0  0  0  0  0
   11.2105   -3.7493    0.0000 C    0  0  0  0  0  0  0  0  0  0  0  0
   13.4830   -4.1598    0.0000 C    0  0  0  0  0  0  0  0  0  0  0  0
   10.9769   -5.0587    0.0000 C    0  0  0  0  0  0  0  0  0  0  0  0
   13.2420   -5.4650    0.0000 C    0  0  0  0  0  0  0  0  0  0  0  0
   11.9944   -5.9226    0.0000 C    0  0  0  0  0  0  0  0  0  0  0  0
    8.2822   -7.7744    0.0000 C    0  0  0  0  0  0  0  0  0  0  0  0
    9.5872   -8.0158    0.0000 C    0  0  0  0  0  0  0  0  0  0  0  0
    7.8246   -6.5268    0.0000 C    0  0  0  0  0  0  0  0  0  0  0  0
   10.4436   -6.9940    0.0000 C    0  0  0  0  0  0  0  0  0  0  0  0
    8.6808   -5.5054    0.0000 C    0  0  0  0  0  0  0  0  0  0  0  0
    9.9977   -5.7432    0.0000 C    0  0  0  0  0  0  0  0  0  0  0  0
   13.9216   -6.4518    0.0000 C    0  0  0  0  0  0  0  0  0  0  0  0
   13.0623   -7.4615    0.0000 C    0  0  0  0  0  0  0  0  0  0  0  0
   15.2233   -6.6808    0.0000 C    0  0  0  0  0  0  0  0  0  0  0  0
   13.5156   -8.7165    0.0000 C    0  0  0  0  0  0  0  0  0  0  0  0
   15.6766   -7.9359    0.0000 C    0  0  0  0  0  0  0  0  0  0  0  0
   14.8169   -8.9454    0.0000 C    0  0  0  0  0  0  0  0  0  0  0  0
    7.2109  -13.7112    0.0000 C    0  0  0  0  0  0  0  0  0  0  0  0
    8.0747  -12.6937    0.0000 C    0  0  0  0  0  0  0  0  0  0  0  0
    5.9014  -13.4776    0.0000 C    0  0  0  0  0  0  0  0  0  0  0  0
    7.6169  -11.4465    0.0000 C    0  0  0  0  0  0  0  0  0  0  0  0
    5.4479  -12.2220    0.0000 C    0  0  0  0  0  0  0  0  0  0  0  0
    6.3119  -11.2051    0.0000 C    0  0  0  0  0  0  0  0  0  0  0  0
    9.6132  -11.6256    0.0000 C    0  0  0  0  0  0  0  0  0  0  0  0
   10.7737  -10.9639    0.0000 C    0  0  0  0  0  0  0  0  0  0  0  0
    8.4651  -10.9528    0.0000 C    0  0  0  0  0  0  0  0  0  0  0  0
   10.7696   -9.6407    0.0000 C    0  0  0  0  0  0  0  0  0  0  0  0
    8.4780   -9.6181    0.0000 C    0  0  0  0  0  0  0  0  0  0  0  0
    9.6217   -8.9675    0.0000 C    0  0  0  0  0  0  0  0  0  0  0  0
    7.8369  -14.4720    0.0000 C    0  0  0  0  0  0  0  0  0  0  0  0
    7.3723  -15.7201    0.0000 C    0  0  0  0  0  0  0  0  0  0  0  0
    9.1461  -14.2445    0.0000 C    0  0  0  0  0  0  0  0  0  0  0  0
    8.2295  -16.7370    0.0000 C    0  0  0  0  0  0  0  0  0  0  0  0
    9.9949  -15.2571    0.0000 C    0  0  0  0  0  0  0  0  0  0  0  0
    9.5304  -16.5051    0.0000 C    0  0  0  0  0  0  0  0  0  0  0  0
   10.6892  -13.1686    0.0000 Rh   0  0  0  0  0  0  0  0  0  0  0  0
   10.4474  -14.4734    0.0000 Cl   0  0  0  0  0  0  0  0  0  0  0  0
   11.7530   -7.2276    0.0000 P    0  0  0  0  0  0  0  0  0  0  0  0
    9.3797  -12.9351    0.0000 P    0  0  0  0  0  0  0  0  0  0  0  0
   13.5395  -13.6776    0.0000 P    0  0  0  0  0  0  0  0  0  0  0  0
   12.7561  -11.5041    0.0000 C    0  0  0  0  0  0  0  0  0  0  0  0
   12.9850  -10.2028    0.0000 C    0  0  0  0  0  0  0  0  0  0  0  0
   13.7731  -12.3681    0.0000 C    0  0  0  0  0  0  0  0  0  0  0  0
   14.2357   -9.7569    0.0000 C    0  0  0  0  0  0  0  0  0  0  0  0
   15.0240  -11.9228    0.0000 C    0  0  0  0  0  0  0  0  0  0  0  0
   15.2575  -10.6133    0.0000 C    0  0  0  0  0  0  0  0  0  0  0  0
  1  2  1  0  0  0  0
  1  3  2  0  0  0  0
  2  4  2  0  0  0  0
  3  5  1  0  0  0  0
  4  6  1  0  0  0  0
  5  6  2  0  0  0  0
  7  8  1  0  0  0  0
  7  9  2  0  0  0  0
  8 10  2  0  0  0  0
  9 11  1  0  0  0  0
 10 12  1  0  0  0  0
 11 12  2  0  0  0  0
 13 14  1  0  0  0  0
 13 15  2  0  0  0  0
 14 16  2  0  0  0  0
 15 17  1  0  0  0  0
 16 18  1  0  0  0  0
 17 18  2  0  0  0  0
 19 20  1  0  0  0  0
 19 21  2  0  0  0  0
 20 22  2  0  0  0  0
 21 23  1  0  0  0  0
 22 24  1  0  0  0  0
 23 24  2  0  0  0  0
 25 26  1  0  0  0  0
 25 27  2  0  0  0  0
 26 28  2  0  0  0  0
 27 29  1  0  0  0  0
 28 30  1  0  0  0  0
 29 30  2  0  0  0  0
 31 32  1  0  0  0  0
 31 33  2  0  0  0  0
 32 34  2  0  0  0  0
 33 35  1  0  0  0  0
 34 36  1  0  0  0  0
 35 36  2  0  0  0  0
 37 38  1  0  0  0  0
 37 39  2  0  0  0  0
 38 40  2  0  0  0  0
 39 41  1  0  0  0  0
 40 42  1  0  0  0  0
 41 42  2  0  0  0  0
 43 44  1  0  0  0  0
 43 45  2  0  0  0  0
 44 46  2  0  0  0  0
 45 47  1  0  0  0  0
 46 48  1  0  0  0  0
 47 48  2  0  0  0  0
 49 50  1  0  0  0  0
 49 51  1  0  0  0  0
 49 52  1  0  0  0  0
 49 53  1  0  0  0  0
 45 52  1  0  0  0  0
 37 52  1  0  0  0  0
 32 52  1  0  0  0  0
 26 51  1  0  0  0  0
 22 51  1  0  0  0  0
 18 51  1  0  0  0  0
 12 53  1  0  0  0  0
  5 53  1  0  0  0  0
 54 55  1  0  0  0  0
 54 56  2  0  0  0  0
 55 57  2  0  0  0  0
 56 58  1  0  0  0  0
 57 59  1  0  0  0  0
 58 59  2  0  0  0  0
 53 56  1  0  0  0  0
M  END
> <NMREDATA_VERSION>
1.1

> <NMREDATA_LEVEL>
0

> <NMREDATA_SOLVENT>
DMSO

> <NMREDATA_TEMPERATURE>
300

> <NMREDATA_FORMULA>
C54H48ClP3Rh

> <NMREDATA_SMILES>
Cl[Rh](P(c1ccccc1)(c1ccccc1)c1ccccc1)(P(c1ccccc1)(c1ccccc1)c1ccccc1)P(c1ccccc1)(c1ccccc1)c1ccccc1

> <NMREDATA_ASSIGNMENT>
Rh49, -70.00, 49

> <NMREDATA_1D_103Rh>
-70.00, L=Rh49

$$$$

  ACD/LABS03222417472D

113128  0  0  0  0  0  0  0  0  2 V2000
   23.5439  -11.5095    0.0000 C    0  0  0  0  0  0  0  0  0  0  0  0
   24.6957  -12.1745    0.0000 C    0  0  0  0  0  0  0  0  0  0  0  0
   22.3921  -12.1745    0.0000 C    0  0  0  0  0  0  0  0  0  0  0  0
   24.6957  -13.5045    0.0000 C    0  0  0  0  0  0  0  0  0  0  0  0
   22.3921  -13.5045    0.0000 C    0  0  0  0  0  0  0  0  0  0  0  0
   23.5439  -14.1695    0.0000 C    0  0  0  0  0  0  0  0  0  0  0  0
   21.9053   -8.0540    0.0000 C    0  0  0  0  0  0  0  0  0  0  0  0
   23.2353   -8.0540    0.0000 C    0  0  0  0  0  0  0  0  0  0  0  0
   21.2403   -9.2059    0.0000 C    0  0  0  0  0  0  0  0  0  0  0  0
   23.9003   -9.2059    0.0000 C    0  0  0  0  0  0  0  0  0  0  0  0
   21.9053  -10.3577    0.0000 C    0  0  0  0  0  0  0  0  0  0  0  0
   23.2353  -10.3577    0.0000 C    0  0  0  0  0  0  0  0  0  0  0  0
   19.2453  -14.9649    0.0000 C    0  0  0  0  0  0  0  0  0  0  0  0
   18.5803  -13.8131    0.0000 C    0  0  0  0  0  0  0  0  0  0  0  0
   20.5753  -14.9649    0.0000 C    0  0  0  0  0  0  0  0  0  0  0  0
   19.2453  -12.6613    0.0000 C    0  0  0  0  0  0  0  0  0  0  0  0
   21.2403  -13.8131    0.0000 C    0  0  0  0  0  0  0  0  0  0  0  0
   20.5753  -12.6613    0.0000 C    0  0  0  0  0  0  0  0  0  0  0  0
   22.0835   -8.3627    0.0000 C    0  0  0  0  0  0  0  0  0  0  0  0
   23.4135   -8.3627    0.0000 C    0  0  0  0  0  0  0  0  0  0  0  0
   21.4185   -9.5145    0.0000 C    0  0  0  0  0  0  0  0  0  0  0  0
   24.0785   -9.5145    0.0000 C    0  0  0  0  0  0  0  0  0  0  0  0
   22.0835  -10.6663    0.0000 C    0  0  0  0  0  0  0  0  0  0  0  0
   23.4135  -10.6663    0.0000 C    0  0  0  0  0  0  0  0  0  0  0  0
   18.0935   -8.3627    0.0000 C    0  0  0  0  0  0  0  0  0  0  0  0
   18.7585   -9.5145    0.0000 C    0  0  0  0  0  0  0  0  0  0  0  0
   16.7635   -8.3627    0.0000 C    0  0  0  0  0  0  0  0  0  0  0  0
   18.0935  -10.6663    0.0000 C    0  0  0  0  0  0  0  0  0  0  0  0
   16.0985   -9.5145    0.0000 C    0  0  0  0  0  0  0  0  0  0  0  0
   16.7635  -10.6663    0.0000 C    0  0  0  0  0  0  0  0  0  0  0  0
   15.9203  -11.5095    0.0000 C    0  0  0  0  0  0  0  0  0  0  0  0
   15.9203  -12.8395    0.0000 C    0  0  0  0  0  0  0  0  0  0  0  0
   14.7685  -10.8445    0.0000 C    0  0  0  0  0  0  0  0  0  0  0  0
   14.7685  -13.5045    0.0000 C    0  0  0  0  0  0  0  0  0  0  0  0
   13.6167  -11.5095    0.0000 C    0  0  0  0  0  0  0  0  0  0  0  0
   13.6167  -12.8395    0.0000 C    0  0  0  0  0  0  0  0  0  0  0  0
   10.1135   -8.3627    0.0000 Rh   0  5  0  0  0  0  0  0  0  0  0  0
    9.4485   -9.5145    0.0000 Cl   0  0  0  0  0  0  0  0  0  0  0  0
    9.4485   -7.2108    0.0000 P    0  0  0  0  0  0  0  0  0  0  0  0
    5.9930   -7.8758    0.0000 C    0  0  0  0  0  0  0  0  0  0  0  0
    7.1449   -7.2108    0.0000 C    0  0  0  0  0  0  0  0  0  0  0  0
    5.9930   -9.2058    0.0000 C    0  0  0  0  0  0  0  0  0  0  0  0
    8.2967   -7.8758    0.0000 C    0  0  0  0  0  0  0  0  0  0  0  0
    7.1449   -9.8708    0.0000 C    0  0  0  0  0  0  0  0  0  0  0  0
    8.2967   -9.2058    0.0000 C    0  0  0  0  0  0  0  0  0  0  0  0
   12.9039   -5.2158    0.0000 C    0  0  0  0  0  0  0  0  0  0  0  0
   12.9039   -6.5458    0.0000 C    0  0  0  0  0  0  0  0  0  0  0  0
   11.7521   -4.5508    0.0000 C    0  0  0  0  0  0  0  0  0  0  0  0
   11.7521   -7.2108    0.0000 C    0  0  0  0  0  0  0  0  0  0  0  0
   10.6003   -5.2158    0.0000 C    0  0  0  0  0  0  0  0  0  0  0  0
   10.6003   -6.5458    0.0000 C    0  0  0  0  0  0  0  0  0  0  0  0
    6.7885   -4.9072    0.0000 C    0  0  0  0  0  0  0  0  0  0  0  0
    7.4535   -3.7554    0.0000 C    0  0  0  0  0  0  0  0  0  0  0  0
    7.4535   -6.0590    0.0000 C    0  0  0  0  0  0  0  0  0  0  0  0
    8.7835   -3.7554    0.0000 C    0  0  0  0  0  0  0  0  0  0  0  0
    8.7835   -6.0590    0.0000 C    0  0  0  0  0  0  0  0  0  0  0  0
    9.4485   -4.9072    0.0000 C    0  0  0  0  0  0  0  0  0  0  0  0
   11.4435   -8.3627    0.0000 P    0  0  0  0  0  0  0  0  0  0  0  0
   12.5953   -5.0377    0.0000 C    0  0  0  0  0  0  0  0  0  0  0  0
   12.5953   -6.3677    0.0000 C    0  0  0  0  0  0  0  0  0  0  0  0
   11.4435   -4.3727    0.0000 C    0  0  0  0  0  0  0  0  0  0  0  0
   11.4435   -7.0327    0.0000 C    0  0  0  0  0  0  0  0  0  0  0  0
   10.2917   -5.0377    0.0000 C    0  0  0  0  0  0  0  0  0  0  0  0
   10.2917   -6.3677    0.0000 C    0  0  0  0  0  0  0  0  0  0  0  0
   11.4435   -9.6927    0.0000 C    0  0  0  0  0  0  0  0  0  0  0  0
   12.5953  -10.3577    0.0000 C    0  0  0  0  0  0  0  0  0  0  0  0
   10.2917  -10.3577    0.0000 C    0  0  0  0  0  0  0  0  0  0  0  0
   12.5953  -11.6877    0.0000 C    0  0  0  0  0  0  0  0  0  0  0  0
   10.2917  -11.6877    0.0000 C    0  0  0  0  0  0  0  0  0  0  0  0
   11.4435  -12.3527    0.0000 C    0  0  0  0  0  0  0  0  0  0  0  0
   12.7735   -8.3627    0.0000 C    0  0  0  0  0  0  0  0  0  0  0  0
   13.4385   -9.5145    0.0000 C    0  0  0  0  0  0  0  0  0  0  0  0
   14.7685   -9.5145    0.0000 P    0  3  0  0  0  0  0  0  0  0  0  0
   15.9203   -6.1895    0.0000 C    0  0  0  0  0  0  0  0  0  0  0  0
   15.9203   -7.5195    0.0000 C    0  0  0  0  0  0  0  0  0  0  0  0
   14.7685   -5.5245    0.0000 C    0  0  0  0  0  0  0  0  0  0  0  0
   14.7685   -8.1845    0.0000 C    0  0  0  0  0  0  0  0  0  0  0  0
   13.6167   -6.1895    0.0000 C    0  0  0  0  0  0  0  0  0  0  0  0
   13.6167   -7.5195    0.0000 C    0  0  0  0  0  0  0  0  0  0  0  0
   20.0885   -9.5145    0.0000 P    0  0  0  0  0  0  0  0  0  0  0  0
   20.0885  -10.8445    0.0000 C    0  0  0  0  0  0  0  0  0  0  0  0
   21.2403   -6.1895    0.0000 C    0  0  0  0  0  0  0  0  0  0  0  0
   21.2403   -7.5195    0.0000 C    0  0  0  0  0  0  0  0  0  0  0  0
   20.0885   -5.5245    0.0000 C    0  0  0  0  0  0  0  0  0  0  0  0
   20.0885   -8.1845    0.0000 C    0  0  0  0  0  0  0  0  0  0  0  0
   18.9367   -6.1895    0.0000 C    0  0  0  0  0  0  0  0  0  0  0  0
   18.9367   -7.5195    0.0000 C    0  0  0  0  0  0  0  0  0  0  0  0
   21.2403  -11.5095    0.0000 P    0  3  0  0  0  0  0  0  0  0  0  0
   34.0092  -10.4477    0.0000 C    0  0  0  0  0  0  0  0  0  0  0  0
   34.0092  -11.7777    0.0000 C    0  0  0  0  0  0  0  0  0  0  0  0
   32.8574   -9.7827    0.0000 C    0  0  0  0  0  0  0  0  0  0  0  0
   32.8574  -12.4427    0.0000 C    0  0  0  0  0  0  0  0  0  0  0  0
   31.7056  -10.4477    0.0000 C    0  0  0  0  0  0  0  0  0  0  0  0
   31.7056  -11.7777    0.0000 C    0  0  0  0  0  0  0  0  0  0  0  0
   36.1824   -9.6045    0.0000 C    0  0  0  0  0  0  0  0  0  0  0  0
   34.8524   -9.6045    0.0000 C    0  0  0  0  0  0  0  0  0  0  0  0
   36.8474   -8.4527    0.0000 C    0  0  0  0  0  0  0  0  0  0  0  0
   34.1874   -8.4527    0.0000 C    0  0  0  0  0  0  0  0  0  0  0  0
   36.1824   -7.3009    0.0000 C    0  0  0  0  0  0  0  0  0  0  0  0
   34.8524   -7.3009    0.0000 C    0  0  0  0  0  0  0  0  0  0  0  0
   31.5274   -8.4527    0.0000 C    0  0  0  0  0  0  0  0  0  0  0  0
   30.8624   -9.6045    0.0000 C    0  0  0  0  0  0  0  0  0  0  0  0
   30.8624   -7.3009    0.0000 C    0  0  0  0  0  0  0  0  0  0  0  0
   29.5324   -9.6045    0.0000 C    0  0  0  0  0  0  0  0  0  0  0  0
   29.5324   -7.3009    0.0000 C    0  0  0  0  0  0  0  0  0  0  0  0
   28.8674   -8.4527    0.0000 C    0  0  0  0  0  0  0  0  0  0  0  0
   32.8574   -8.4527    0.0000 B    0  5  0  0  0  0  0  0  0  0  0  0
   31.7056   -5.1277    0.0000 C    0  0  0  0  0  0  0  0  0  0  0  0
   32.8574   -4.4627    0.0000 C    0  0  0  0  0  0  0  0  0  0  0  0
   31.7056   -6.4577    0.0000 C    0  0  0  0  0  0  0  0  0  0  0  0
   34.0092   -5.1277    0.0000 C    0  0  0  0  0  0  0  0  0  0  0  0
   32.8574   -7.1227    0.0000 C    0  0  0  0  0  0  0  0  0  0  0  0
   34.0092   -6.4577    0.0000 C    0  0  0  0  0  0  0  0  0  0  0  0
  1  2  1  0  0  0  0
  1  3  2  0  0  0  0
  2  4  2  0  0  0  0
  3  5  1  0  0  0  0
  4  6  1  0  0  0  0
  5  6  2  0  0  0  0
  7  8  1  0  0  0  0
  7  9  2  0  0  0  0
  8 10  2  0  0  0  0
  9 11  1  0  0  0  0
 10 12  1  0  0  0  0
 11 12  2  0  0  0  0
 13 14  1  0  0  0  0
 13 15  2  0  0  0  0
 14 16  2  0  0  0  0
 15 17  1  0  0  0  0
 16 18  1  0  0  0  0
 17 18  2  0  0  0  0
 19 20  1  0  0  0  0
 19 21  2  0  0  0  0
 20 22  2  0  0  0  0
 21 23  1  0  0  0  0
 22 24  1  0  0  0  0
 23 24  2  0  0  0  0
 25 26  1  0  0  0  0
 25 27  2  0  0  0  0
 26 28  2  0  0  0  0
 27 29  1  0  0  0  0
 28 30  1  0  0  0  0
 29 30  2  0  0  0  0
 31 32  1  0  0  0  0
 31 33  2  0  0  0  0
 32 34  2  0  0  0  0
 33 35  1  0  0  0  0
 34 36  1  0  0  0  0
 35 36  2  0  0  0  0
 37 38  1  0  0  0  0
 37 39  1  0  0  0  0
 40 41  1  0  0  0  0
 40 42  2  0  0  0  0
 41 43  2  0  0  0  0
 42 44  1  0  0  0  0
 43 45  1  0  0  0  0
 44 45  2  0  0  0  0
 39 43  1  0  0  0  0
 46 47  1  0  0  0  0
 46 48  2  0  0  0  0
 47 49  2  0  0  0  0
 48 50  1  0  0  0  0
 49 51  1  0  0  0  0
 50 51  2  0  0  0  0
 39 51  1  0  0  0  0
 52 53  1  0  0  0  0
 52 54  2  0  0  0  0
 53 55  2  0  0  0  0
 54 56  1  0  0  0  0
 55 57  1  0  0  0  0
 56 57  2  0  0  0  0
 39 56  1  0  0  0  0
 37 58  1  0  0  0  0
 59 60  1  0  0  0  0
 59 61  2  0  0  0  0
 60 62  2  0  0  0  0
 61 63  1  0  0  0  0
 62 64  1  0  0  0  0
 63 64  2  0  0  0  0
 58 62  1  0  0  0  0
 65 66  1  0  0  0  0
 65 67  2  0  0  0  0
 66 68  2  0  0  0  0
 67 69  1  0  0  0  0
 68 70  1  0  0  0  0
 69 70  2  0  0  0  0
 58 65  1  0  0  0  0
 58 71  1  0  0  0  0
 71 72  1  0  0  0  0
 72 73  1  0  0  0  0
 74 75  1  0  0  0  0
 74 76  2  0  0  0  0
 75 77  2  0  0  0  0
 76 78  1  0  0  0  0
 77 79  1  0  0  0  0
 78 79  2  0  0  0  0
 73 77  1  0  0  0  0
 33 73  1  0  0  0  0
 29 73  1  0  0  0  0
 26 80  1  0  0  0  0
 80 81  2  0  0  0  0
 21 80  1  0  0  0  0
 82 83  1  0  0  0  0
 82 84  2  0  0  0  0
 83 85  2  0  0  0  0
 84 86  1  0  0  0  0
 85 87  1  0  0  0  0
 86 87  2  0  0  0  0
 80 85  1  0  0  0  0
 81 88  1  0  0  0  0
 18 88  1  0  0  0  0
 11 88  1  0  0  0  0
  3 88  1  0  0  0  0
 89 90  1  0  0  0  0
 89 91  2  0  0  0  0
 90 92  2  0  0  0  0
 91 93  1  0  0  0  0
 92 94  1  0  0  0  0
 93 94  2  0  0  0  0
 95 96  1  0  0  0  0
 95 97  2  0  0  0  0
 96 98  2  0  0  0  0
 97 99  1  0  0  0  0
 98100  1  0  0  0  0
 99100  2  0  0  0  0
101102  1  0  0  0  0
101103  2  0  0  0  0
102104  2  0  0  0  0
103105  1  0  0  0  0
104106  1  0  0  0  0
105106  2  0  0  0  0
101107  1  0  0  0  0
 98107  1  0  0  0  0
108109  1  0  0  0  0
108110  2  0  0  0  0
109111  2  0  0  0  0
110112  1  0  0  0  0
111113  1  0  0  0  0
112113  2  0  0  0  0
107112  1  0  0  0  0
 91107  1  0  0  0  0
M  END
> <NMREDATA_VERSION>
1.1

> <NMREDATA_LEVEL>
0

> <NMREDATA_SOLVENT>
CD2Cl2

> <NMREDATA_TEMPERATURE>
298

> <NMREDATA_FORMULA>
C105H93BClP5Rh

> <NMREDATA_SMILES>
c1ccc(cc1)[B](c1ccccc1)(c1ccccc1)c1ccccc1.Cl[Rh](P(c1ccccc1)(c1ccccc1)c1ccccc1)P(c1ccccc1)(c1ccccc1)CCP(c1ccccc1)(c1ccccc1)c1ccc(cc1)P(=CP(c1ccccc1)(c1ccccc1)c1ccccc1)(c1ccccc1)c1ccccc1

> <NMREDATA_ASSIGNMENT>
Rh37, 32.00, 37

> <NMREDATA_1D_103Rh>
32.00, L=Rh37

$$$$

  ACD/LABS03152412572D

 39 42  0  0  0  0  0  0  0  0  1 V2000
   10.1969   -9.2749    0.0000 C    0  0  0  0  0  0  0  0  0  0  0  0
    9.4922   -8.0543    0.0000 C    0  0  0  0  0  0  0  0  0  0  0  0
    9.4913  -10.4962    0.0000 C    0  0  0  0  0  0  0  0  0  0  0  0
    8.0817   -8.0547    0.0000 C    0  0  0  0  0  0  0  0  0  0  0  0
    8.0808  -10.4966    0.0000 C    0  0  0  0  0  0  0  0  0  0  0  0
    7.3761   -9.2760    0.0000 C    0  0  0  0  0  0  0  0  0  0  0  0
    9.5972  -13.9504    0.0000 C    0  0  0  0  0  0  0  0  0  0  0  0
   10.6748  -13.0352    0.0000 C    0  0  0  0  0  0  0  0  0  0  0  0
    9.8447  -15.3378    0.0000 C    0  0  0  0  0  0  0  0  0  0  0  0
   12.0046  -13.5153    0.0000 C    0  0  0  0  0  0  0  0  0  0  0  0
   11.1696  -15.8095    0.0000 C    0  0  0  0  0  0  0  0  0  0  0  0
   12.2521  -14.9027    0.0000 C    0  0  0  0  0  0  0  0  0  0  0  0
   10.1962  -11.7172    0.0000 P    0  0  0  0  0  0  0  0  0  0  0  0
    8.8740  -12.2089    0.0000 C    0  0  0  0  0  0  0  0  0  0  0  0
    8.6281  -13.5875    0.0000 C    0  0  0  0  0  0  0  0  0  0  0  0
    7.3064  -14.0800    0.0000 O    0  0  0  0  0  0  0  0  0  0  0  0
    7.0609  -15.4585    0.0000 C    0  0  0  0  0  0  0  0  0  0  0  0
   13.0762  -10.6731    0.0000 Rh   0  0  0  0  0  0  0  0  0  0  0  0
   12.5921   -9.3465    0.0000 Cl   0  0  0  0  0  0  0  0  0  0  0  0
   16.3790   -7.2033    0.0000 C    0  0  0  0  0  0  0  0  0  0  0  0
   15.8919   -5.8892    0.0000 C    0  0  0  0  0  0  0  0  0  0  0  0
   15.4760   -8.2889    0.0000 C    0  0  0  0  0  0  0  0  0  0  0  0
   14.5002   -5.6401    0.0000 C    0  0  0  0  0  0  0  0  0  0  0  0
   14.0889   -8.0478    0.0000 C    0  0  0  0  0  0  0  0  0  0  0  0
   13.5970   -6.7263    0.0000 C    0  0  0  0  0  0  0  0  0  0  0  0
   18.3545  -10.0232    0.0000 C    0  0  0  0  0  0  0  0  0  0  0  0
   17.2814   -9.1232    0.0000 C    0  0  0  0  0  0  0  0  0  0  0  0
   19.6811   -9.5391    0.0000 C    0  0  0  0  0  0  0  0  0  0  0  0
   17.5227   -7.7365    0.0000 C    0  0  0  0  0  0  0  0  0  0  0  0
   19.9217   -8.1523    0.0000 C    0  0  0  0  0  0  0  0  0  0  0  0
   18.8495   -7.2528    0.0000 C    0  0  0  0  0  0  0  0  0  0  0  0
   15.9548   -9.6073    0.0000 P    0  0  0  0  0  0  0  0  0  0  0  0
   16.4340  -10.9255    0.0000 C    0  0  0  0  0  0  0  0  0  0  0  0
   17.8257  -11.1745    0.0000 C    0  0  0  0  0  0  0  0  0  0  0  0
   18.3048  -12.4933    0.0000 O    0  0  0  0  0  0  0  0  0  0  0  0
   19.7045  -12.7378    0.0000 C    0  0  0  0  0  0  0  0  0  0  0  0
   13.5589  -11.9780    0.0000 S    0  0  0  0  0  0  0  0  0  0  0  0
   12.8534  -13.1993    0.0000 O    0  0  0  0  0  0  0  0  0  0  0  0
   14.9419  -12.2321    0.0000 O    0  0  0  0  0  0  0  0  0  0  0  0
  1  2  1  0  0  0  0
  1  3  1  0  0  0  0
  2  4  1  0  0  0  0
  3  5  1  0  0  0  0
  4  6  1  0  0  0  0
  5  6  1  0  0  0  0
  7  8  1  0  0  0  0
  7  9  1  0  0  0  0
  8 10  1  0  0  0  0
  9 11  1  0  0  0  0
 10 12  1  0  0  0  0
 11 12  1  0  0  0  0
  8 13  1  0  0  0  0
 13 14  1  0  0  0  0
 14 15  1  0  0  0  0
 15 16  1  0  0  0  0
 16 17  1  0  0  0  0
  3 13  1  0  0  0  0
 18 19  1  0  0  0  0
 20 21  1  0  0  0  0
 20 22  1  0  0  0  0
 21 23  1  0  0  0  0
 22 24  1  0  0  0  0
 23 25  1  0  0  0  0
 24 25  1  0  0  0  0
 26 27  1  0  0  0  0
 26 28  1  0  0  0  0
 27 29  1  0  0  0  0
 28 30  1  0  0  0  0
 29 31  1  0  0  0  0
 30 31  1  0  0  0  0
 27 32  1  0  0  0  0
 32 33  1  0  0  0  0
 33 34  1  0  0  0  0
 34 35  1  0  0  0  0
 35 36  1  0  0  0  0
 22 32  1  0  0  0  0
 18 32  1  0  0  0  0
 13 18  1  0  0  0  0
 18 37  1  0  0  0  0
 37 38  2  0  0  0  0
 37 39  2  0  0  0  0
M  END
> <NMREDATA_VERSION>
1.1

> <NMREDATA_LEVEL>
0

> <NMREDATA_SOLVENT>
CD2Cl2

> <NMREDATA_TEMPERATURE>
295

> <NMREDATA_FORMULA>
C30H61ClO4P2RhS

> <NMREDATA_SMILES>
COCCP([Rh](P(C1CCCCC1)(C1CCCCC1)CCOC)(S(=O)=O)Cl)(C1CCCCC1)C1CCCCC1

> <NMREDATA_ASSIGNMENT>
Rh18, 955.00, 18

> <NMREDATA_1D_103Rh>
955.00, L=Rh18

$$$$

  ACD/LABS03152413012D

 59 67  0  0  0  0  0  0  0  0  1 V2000
   11.3676   -9.3983    0.0000 Rh   0  0  0  0  0  0  0  0  0  0  0  0
   11.1459   -8.0952    0.0000 Br   0  0  0  0  0  0  0  0  0  0  0  0
   12.6796   -9.1770    0.0000 P    0  0  0  0  0  0  0  0  0  0  0  0
   12.4050  -15.3382    0.0000 P    0  0  0  0  0  0  0  0  0  0  0  0
    8.5224   -9.9038    0.0000 P    0  0  0  0  0  0  0  0  0  0  0  0
   13.8323   -5.8522    0.0000 C    0  0  0  0  0  0  0  0  0  0  0  0
   13.8323   -7.1822    0.0000 C    0  0  0  0  0  0  0  0  0  0  0  0
   12.6796   -5.1875    0.0000 C    0  0  0  0  0  0  0  0  0  0  0  0
   12.6796   -7.8470    0.0000 C    0  0  0  0  0  0  0  0  0  0  0  0
   11.5273   -5.8522    0.0000 C    0  0  0  0  0  0  0  0  0  0  0  0
   11.5273   -7.1822    0.0000 C    0  0  0  0  0  0  0  0  0  0  0  0
   16.6691   -9.1770    0.0000 C    0  0  0  0  0  0  0  0  0  0  0  0
   16.0043   -8.0243    0.0000 C    0  0  0  0  0  0  0  0  0  0  0  0
   16.0043  -10.3205    0.0000 C    0  0  0  0  0  0  0  0  0  0  0  0
   14.6743   -8.0243    0.0000 C    0  0  0  0  0  0  0  0  0  0  0  0
   14.6743  -10.3205    0.0000 C    0  0  0  0  0  0  0  0  0  0  0  0
   14.0096   -9.1770    0.0000 C    0  0  0  0  0  0  0  0  0  0  0  0
   13.8323  -12.4921    0.0000 C    0  0  0  0  0  0  0  0  0  0  0  0
   12.6796  -13.1569    0.0000 C    0  0  0  0  0  0  0  0  0  0  0  0
   13.8323  -11.1718    0.0000 C    0  0  0  0  0  0  0  0  0  0  0  0
   11.5273  -12.4921    0.0000 C    0  0  0  0  0  0  0  0  0  0  0  0
   12.6796  -10.5066    0.0000 C    0  0  0  0  0  0  0  0  0  0  0  0
   11.5273  -11.1718    0.0000 C    0  0  0  0  0  0  0  0  0  0  0  0
   10.6408  -16.8187    0.0000 C    0  0  0  0  0  0  0  0  0  0  0  0
    9.3376  -17.0492    0.0000 C    0  0  0  0  0  0  0  0  0  0  0  0
   11.1019  -15.5683    0.0000 C    0  0  0  0  0  0  0  0  0  0  0  0
    8.4867  -16.0294    0.0000 C    0  0  0  0  0  0  0  0  0  0  0  0
   10.2510  -14.5489    0.0000 C    0  0  0  0  0  0  0  0  0  0  0  0
    8.9478  -14.7795    0.0000 C    0  0  0  0  0  0  0  0  0  0  0  0
   14.1781  -13.8661    0.0000 C    0  0  0  0  0  0  0  0  0  0  0  0
   15.4812  -13.6360    0.0000 C    0  0  0  0  0  0  0  0  0  0  0  0
   13.7170  -15.1077    0.0000 C    0  0  0  0  0  0  0  0  0  0  0  0
   16.3414  -14.6554    0.0000 C    0  0  0  0  0  0  0  0  0  0  0  0
   14.5683  -16.1271    0.0000 C    0  0  0  0  0  0  0  0  0  0  0  0
   15.8803  -15.9053    0.0000 C    0  0  0  0  0  0  0  0  0  0  0  0
   12.6356  -16.6502    0.0000 C    0  0  0  0  0  0  0  0  0  0  0  0
   11.6157  -17.5011    0.0000 C    0  0  0  0  0  0  0  0  0  0  0  0
   13.8855  -17.1025    0.0000 C    0  0  0  0  0  0  0  0  0  0  0  0
   11.8463  -18.8135    0.0000 C    0  0  0  0  0  0  0  0  0  0  0  0
   14.1160  -18.4144    0.0000 C    0  0  0  0  0  0  0  0  0  0  0  0
   13.0966  -19.2653    0.0000 C    0  0  0  0  0  0  0  0  0  0  0  0
   10.0028  -11.6681    0.0000 C    0  0  0  0  0  0  0  0  0  0  0  0
   10.2334  -12.9708    0.0000 C    0  0  0  0  0  0  0  0  0  0  0  0
    8.7525  -11.2070    0.0000 C    0  0  0  0  0  0  0  0  0  0  0  0
    9.2136  -13.8221    0.0000 C    0  0  0  0  0  0  0  0  0  0  0  0
    7.7331  -12.0671    0.0000 C    0  0  0  0  0  0  0  0  0  0  0  0
    7.9636  -13.3610    0.0000 C    0  0  0  0  0  0  0  0  0  0  0  0
    8.2918   -8.5919    0.0000 C    0  0  0  0  0  0  0  0  0  0  0  0
    9.3112   -7.7406    0.0000 C    0  0  0  0  0  0  0  0  0  0  0  0
    7.0503   -8.1308    0.0000 C    0  0  0  0  0  0  0  0  0  0  0  0
    9.0895   -6.4286    0.0000 C    0  0  0  0  0  0  0  0  0  0  0  0
    6.8202   -6.8184    0.0000 C    0  0  0  0  0  0  0  0  0  0  0  0
    7.8396   -5.9675    0.0000 C    0  0  0  0  0  0  0  0  0  0  0  0
    6.7577  -11.3755    0.0000 C    0  0  0  0  0  0  0  0  0  0  0  0
    7.2100  -10.1256    0.0000 C    0  0  0  0  0  0  0  0  0  0  0  0
    5.4457  -11.6060    0.0000 C    0  0  0  0  0  0  0  0  0  0  0  0
    6.3591   -9.1057    0.0000 C    0  0  0  0  0  0  0  0  0  0  0  0
    4.5949  -10.5867    0.0000 C    0  0  0  0  0  0  0  0  0  0  0  0
    5.0467   -9.3363    0.0000 C    0  0  0  0  0  0  0  0  0  0  0  0
  1  2  1  0  0  0  0
  1  3  1  0  0  0  0
  1  4  1  0  0  0  0
  1  5  1  0  0  0  0
  6  7  1  0  0  0  0
  6  8  2  0  0  0  0
  7  9  2  0  0  0  0
  8 10  1  0  0  0  0
  9 11  1  0  0  0  0
 10 11  2  0  0  0  0
  3  9  1  0  0  0  0
 12 13  1  0  0  0  0
 12 14  2  0  0  0  0
 13 15  2  0  0  0  0
 14 16  1  0  0  0  0
 15 17  1  0  0  0  0
 16 17  2  0  0  0  0
  3 17  1  0  0  0  0
 18 19  1  0  0  0  0
 18 20  2  0  0  0  0
 19 21  2  0  0  0  0
 20 22  1  0  0  0  0
 21 23  1  0  0  0  0
 22 23  2  0  0  0  0
  3 22  1  0  0  0  0
 24 25  1  0  0  0  0
 24 26  2  0  0  0  0
 25 27  2  0  0  0  0
 26 28  1  0  0  0  0
 27 29  1  0  0  0  0
 28 29  2  0  0  0  0
  4 26  1  0  0  0  0
 30 31  1  0  0  0  0
 30 32  2  0  0  0  0
 31 33  2  0  0  0  0
 32 34  1  0  0  0  0
 33 35  1  0  0  0  0
 34 35  2  0  0  0  0
  4 32  1  0  0  0  0
 36 37  1  0  0  0  0
 36 38  2  0  0  0  0
 37 39  2  0  0  0  0
 38 40  1  0  0  0  0
 39 41  1  0  0  0  0
 40 41  2  0  0  0  0
  4 36  1  0  0  0  0
 42 43  1  0  0  0  0
 42 44  2  0  0  0  0
 43 45  2  0  0  0  0
 44 46  1  0  0  0  0
 45 47  1  0  0  0  0
 46 47  2  0  0  0  0
  5 44  1  0  0  0  0
 48 49  1  0  0  0  0
 48 50  2  0  0  0  0
 49 51  2  0  0  0  0
 50 52  1  0  0  0  0
 51 53  1  0  0  0  0
 52 53  2  0  0  0  0
  5 48  1  0  0  0  0
 54 55  1  0  0  0  0
 54 56  2  0  0  0  0
 55 57  2  0  0  0  0
 56 58  1  0  0  0  0
 57 59  1  0  0  0  0
 58 59  2  0  0  0  0
  5 55  1  0  0  0  0
M  END
> <NMREDATA_VERSION>
1.1

> <NMREDATA_LEVEL>
0

> <NMREDATA_SOLVENT>
CD2Cl2

> <NMREDATA_TEMPERATURE>
280

> <NMREDATA_FORMULA>
C54H48BrP3Rh

> <NMREDATA_SMILES>
Br[Rh](P(c1ccccc1)(c1ccccc1)c1ccccc1)(P(c1ccccc1)(c1ccccc1)c1ccccc1)P(c1ccccc1)(c1ccccc1)c1ccccc1

> <NMREDATA_ASSIGNMENT>
Rh1, -142.00, 1

> <NMREDATA_1D_103Rh>
-142.00, L=Rh1

$$$$

  ACD/LABS03152413022D

 59 67  0  0  0  0  0  0  0  0  1 V2000
   11.3676   -9.3983    0.0000 Rh   0  0  0  0  0  0  0  0  0  0  0  0
   11.1459   -8.0952    0.0000 I    0  0  0  0  0  0  0  0  0  0  0  0
   12.6796   -9.1770    0.0000 P    0  0  0  0  0  0  0  0  0  0  0  0
   12.4050  -15.3382    0.0000 P    0  0  0  0  0  0  0  0  0  0  0  0
    8.5224   -9.9038    0.0000 P    0  0  0  0  0  0  0  0  0  0  0  0
   13.8323   -5.8522    0.0000 C    0  0  0  0  0  0  0  0  0  0  0  0
   13.8323   -7.1822    0.0000 C    0  0  0  0  0  0  0  0  0  0  0  0
   12.6796   -5.1875    0.0000 C    0  0  0  0  0  0  0  0  0  0  0  0
   12.6796   -7.8470    0.0000 C    0  0  0  0  0  0  0  0  0  0  0  0
   11.5273   -5.8522    0.0000 C    0  0  0  0  0  0  0  0  0  0  0  0
   11.5273   -7.1822    0.0000 C    0  0  0  0  0  0  0  0  0  0  0  0
   16.6691   -9.1770    0.0000 C    0  0  0  0  0  0  0  0  0  0  0  0
   16.0043   -8.0243    0.0000 C    0  0  0  0  0  0  0  0  0  0  0  0
   16.0043  -10.3205    0.0000 C    0  0  0  0  0  0  0  0  0  0  0  0
   14.6743   -8.0243    0.0000 C    0  0  0  0  0  0  0  0  0  0  0  0
   14.6743  -10.3205    0.0000 C    0  0  0  0  0  0  0  0  0  0  0  0
   14.0096   -9.1770    0.0000 C    0  0  0  0  0  0  0  0  0  0  0  0
   13.8323  -12.4921    0.0000 C    0  0  0  0  0  0  0  0  0  0  0  0
   12.6796  -13.1569    0.0000 C    0  0  0  0  0  0  0  0  0  0  0  0
   13.8323  -11.1718    0.0000 C    0  0  0  0  0  0  0  0  0  0  0  0
   11.5273  -12.4921    0.0000 C    0  0  0  0  0  0  0  0  0  0  0  0
   12.6796  -10.5066    0.0000 C    0  0  0  0  0  0  0  0  0  0  0  0
   11.5273  -11.1718    0.0000 C    0  0  0  0  0  0  0  0  0  0  0  0
   10.6408  -16.8187    0.0000 C    0  0  0  0  0  0  0  0  0  0  0  0
    9.3376  -17.0492    0.0000 C    0  0  0  0  0  0  0  0  0  0  0  0
   11.1019  -15.5683    0.0000 C    0  0  0  0  0  0  0  0  0  0  0  0
    8.4867  -16.0294    0.0000 C    0  0  0  0  0  0  0  0  0  0  0  0
   10.2510  -14.5489    0.0000 C    0  0  0  0  0  0  0  0  0  0  0  0
    8.9478  -14.7795    0.0000 C    0  0  0  0  0  0  0  0  0  0  0  0
   14.1781  -13.8661    0.0000 C    0  0  0  0  0  0  0  0  0  0  0  0
   15.4812  -13.6360    0.0000 C    0  0  0  0  0  0  0  0  0  0  0  0
   13.7170  -15.1077    0.0000 C    0  0  0  0  0  0  0  0  0  0  0  0
   16.3414  -14.6554    0.0000 C    0  0  0  0  0  0  0  0  0  0  0  0
   14.5683  -16.1271    0.0000 C    0  0  0  0  0  0  0  0  0  0  0  0
   15.8803  -15.9053    0.0000 C    0  0  0  0  0  0  0  0  0  0  0  0
   12.6356  -16.6502    0.0000 C    0  0  0  0  0  0  0  0  0  0  0  0
   11.6157  -17.5011    0.0000 C    0  0  0  0  0  0  0  0  0  0  0  0
   13.8855  -17.1025    0.0000 C    0  0  0  0  0  0  0  0  0  0  0  0
   11.8463  -18.8135    0.0000 C    0  0  0  0  0  0  0  0  0  0  0  0
   14.1160  -18.4144    0.0000 C    0  0  0  0  0  0  0  0  0  0  0  0
   13.0966  -19.2653    0.0000 C    0  0  0  0  0  0  0  0  0  0  0  0
   10.0028  -11.6681    0.0000 C    0  0  0  0  0  0  0  0  0  0  0  0
   10.2334  -12.9708    0.0000 C    0  0  0  0  0  0  0  0  0  0  0  0
    8.7525  -11.2070    0.0000 C    0  0  0  0  0  0  0  0  0  0  0  0
    9.2136  -13.8221    0.0000 C    0  0  0  0  0  0  0  0  0  0  0  0
    7.7331  -12.0671    0.0000 C    0  0  0  0  0  0  0  0  0  0  0  0
    7.9636  -13.3610    0.0000 C    0  0  0  0  0  0  0  0  0  0  0  0
    8.2918   -8.5919    0.0000 C    0  0  0  0  0  0  0  0  0  0  0  0
    9.3112   -7.7406    0.0000 C    0  0  0  0  0  0  0  0  0  0  0  0
    7.0503   -8.1308    0.0000 C    0  0  0  0  0  0  0  0  0  0  0  0
    9.0895   -6.4286    0.0000 C    0  0  0  0  0  0  0  0  0  0  0  0
    6.8202   -6.8184    0.0000 C    0  0  0  0  0  0  0  0  0  0  0  0
    7.8396   -5.9675    0.0000 C    0  0  0  0  0  0  0  0  0  0  0  0
    6.7577  -11.3755    0.0000 C    0  0  0  0  0  0  0  0  0  0  0  0
    7.2100  -10.1256    0.0000 C    0  0  0  0  0  0  0  0  0  0  0  0
    5.4457  -11.6060    0.0000 C    0  0  0  0  0  0  0  0  0  0  0  0
    6.3591   -9.1057    0.0000 C    0  0  0  0  0  0  0  0  0  0  0  0
    4.5949  -10.5867    0.0000 C    0  0  0  0  0  0  0  0  0  0  0  0
    5.0467   -9.3363    0.0000 C    0  0  0  0  0  0  0  0  0  0  0  0
  1  2  1  0  0  0  0
  1  3  1  0  0  0  0
  1  4  1  0  0  0  0
  1  5  1  0  0  0  0
  6  7  1  0  0  0  0
  6  8  2  0  0  0  0
  7  9  2  0  0  0  0
  8 10  1  0  0  0  0
  9 11  1  0  0  0  0
 10 11  2  0  0  0  0
  3  9  1  0  0  0  0
 12 13  1  0  0  0  0
 12 14  2  0  0  0  0
 13 15  2  0  0  0  0
 14 16  1  0  0  0  0
 15 17  1  0  0  0  0
 16 17  2  0  0  0  0
  3 17  1  0  0  0  0
 18 19  1  0  0  0  0
 18 20  2  0  0  0  0
 19 21  2  0  0  0  0
 20 22  1  0  0  0  0
 21 23  1  0  0  0  0
 22 23  2  0  0  0  0
  3 22  1  0  0  0  0
 24 25  1  0  0  0  0
 24 26  2  0  0  0  0
 25 27  2  0  0  0  0
 26 28  1  0  0  0  0
 27 29  1  0  0  0  0
 28 29  2  0  0  0  0
  4 26  1  0  0  0  0
 30 31  1  0  0  0  0
 30 32  2  0  0  0  0
 31 33  2  0  0  0  0
 32 34  1  0  0  0  0
 33 35  1  0  0  0  0
 34 35  2  0  0  0  0
  4 32  1  0  0  0  0
 36 37  1  0  0  0  0
 36 38  2  0  0  0  0
 37 39  2  0  0  0  0
 38 40  1  0  0  0  0
 39 41  1  0  0  0  0
 40 41  2  0  0  0  0
  4 36  1  0  0  0  0
 42 43  1  0  0  0  0
 42 44  2  0  0  0  0
 43 45  2  0  0  0  0
 44 46  1  0  0  0  0
 45 47  1  0  0  0  0
 46 47  2  0  0  0  0
  5 44  1  0  0  0  0
 48 49  1  0  0  0  0
 48 50  2  0  0  0  0
 49 51  2  0  0  0  0
 50 52  1  0  0  0  0
 51 53  1  0  0  0  0
 52 53  2  0  0  0  0
  5 48  1  0  0  0  0
 54 55  1  0  0  0  0
 54 56  2  0  0  0  0
 55 57  2  0  0  0  0
 56 58  1  0  0  0  0
 57 59  1  0  0  0  0
 58 59  2  0  0  0  0
  5 55  1  0  0  0  0
M  END
> <NMREDATA_VERSION>
1.1

> <NMREDATA_LEVEL>
0

> <NMREDATA_SOLVENT>
CD2Cl2

> <NMREDATA_TEMPERATURE>
260

> <NMREDATA_FORMULA>
C54H48IP3Rh

> <NMREDATA_SMILES>
I[Rh](P(c1ccccc1)(c1ccccc1)c1ccccc1)(P(c1ccccc1)(c1ccccc1)c1ccccc1)P(c1ccccc1)(c1ccccc1)c1ccccc1

> <NMREDATA_ASSIGNMENT>
Rh1, -267.00, 1

> <NMREDATA_1D_103Rh>
-267.00, L=Rh1

$$$$

  ACD/LABS03152413022D

 62 70  0  0  0  0  0  0  0  0  1 V2000
   13.8072  -11.0331    0.0000 Rh   0  0  0  0  0  0  0  0  0  0  0  0
   13.1425   -9.8819    0.0000 S    0  0  0  0  0  0  0  0  0  0  0  0
   14.9584  -10.3685    0.0000 P    0  0  0  0  0  0  0  0  0  0  0  0
   17.6737  -15.6562    0.0000 P    0  0  0  0  0  0  0  0  0  0  0  0
   11.5964  -12.8927    0.0000 P    0  0  0  0  0  0  0  0  0  0  0  0
   14.9021   -6.8500    0.0000 C    0  0  0  0  0  0  0  0  0  0  0  0
   15.3583   -8.1010    0.0000 C    0  0  0  0  0  0  0  0  0  0  0  0
   13.5941   -6.6228    0.0000 C    0  0  0  0  0  0  0  0  0  0  0  0
   14.5065   -9.1249    0.0000 C    0  0  0  0  0  0  0  0  0  0  0  0
   12.7423   -7.6468    0.0000 C    0  0  0  0  0  0  0  0  0  0  0  0
   13.1940   -8.8899    0.0000 C    0  0  0  0  0  0  0  0  0  0  0  0
   18.4120   -8.3745    0.0000 C    0  0  0  0  0  0  0  0  0  0  0  0
   17.2648   -7.7164    0.0000 C    0  0  0  0  0  0  0  0  0  0  0  0
   18.4127   -9.7045    0.0000 C    0  0  0  0  0  0  0  0  0  0  0  0
   16.1136   -8.3811    0.0000 C    0  0  0  0  0  0  0  0  0  0  0  0
   17.2615  -10.3692    0.0000 C    0  0  0  0  0  0  0  0  0  0  0  0
   16.1096   -9.7038    0.0000 C    0  0  0  0  0  0  0  0  0  0  0  0
   17.6131  -12.6623    0.0000 C    0  0  0  0  0  0  0  0  0  0  0  0
   16.9476  -13.8138    0.0000 C    0  0  0  0  0  0  0  0  0  0  0  0
   16.9530  -11.5190    0.0000 C    0  0  0  0  0  0  0  0  0  0  0  0
   15.6176  -13.8145    0.0000 C    0  0  0  0  0  0  0  0  0  0  0  0
   15.6230  -11.5197    0.0000 C    0  0  0  0  0  0  0  0  0  0  0  0
   14.9575  -12.6711    0.0000 C    0  0  0  0  0  0  0  0  0  0  0  0
   16.8866  -17.8196    0.0000 C    0  0  0  0  0  0  0  0  0  0  0  0
   15.8739  -18.6704    0.0000 C    0  0  0  0  0  0  0  0  0  0  0  0
   16.6606  -16.5072    0.0000 C    0  0  0  0  0  0  0  0  0  0  0  0
   14.6276  -18.2131    0.0000 C    0  0  0  0  0  0  0  0  0  0  0  0
   15.4147  -16.0497    0.0000 C    0  0  0  0  0  0  0  0  0  0  0  0
   14.4019  -16.9005    0.0000 C    0  0  0  0  0  0  0  0  0  0  0  0
   18.4732  -13.4962    0.0000 C    0  0  0  0  0  0  0  0  0  0  0  0
   19.4863  -12.6452    0.0000 C    0  0  0  0  0  0  0  0  0  0  0  0
   18.6943  -14.8009    0.0000 C    0  0  0  0  0  0  0  0  0  0  0  0
   20.7404  -13.0979    0.0000 C    0  0  0  0  0  0  0  0  0  0  0  0
   19.9451  -15.2661    0.0000 C    0  0  0  0  0  0  0  0  0  0  0  0
   20.9661  -14.4105    0.0000 C    0  0  0  0  0  0  0  0  0  0  0  0
   18.5290  -16.6768    0.0000 C    0  0  0  0  0  0  0  0  0  0  0  0
   18.0717  -17.9231    0.0000 C    0  0  0  0  0  0  0  0  0  0  0  0
   19.8416  -16.4512    0.0000 C    0  0  0  0  0  0  0  0  0  0  0  0
   18.9273  -18.9441    0.0000 C    0  0  0  0  0  0  0  0  0  0  0  0
   20.6926  -17.4643    0.0000 C    0  0  0  0  0  0  0  0  0  0  0  0
   20.2399  -18.7184    0.0000 C    0  0  0  0  0  0  0  0  0  0  0  0
   11.9948  -15.1594    0.0000 C    0  0  0  0  0  0  0  0  0  0  0  0
   12.8406  -16.1644    0.0000 C    0  0  0  0  0  0  0  0  0  0  0  0
   12.4474  -13.9058    0.0000 C    0  0  0  0  0  0  0  0  0  0  0  0
   14.1458  -15.9431    0.0000 C    0  0  0  0  0  0  0  0  0  0  0  0
   13.7600  -13.6801    0.0000 C    0  0  0  0  0  0  0  0  0  0  0  0
   14.6105  -14.6925    0.0000 C    0  0  0  0  0  0  0  0  0  0  0  0
   10.7414  -11.8719    0.0000 C    0  0  0  0  0  0  0  0  0  0  0  0
   11.1983  -10.6258    0.0000 C    0  0  0  0  0  0  0  0  0  0  0  0
    9.4288  -12.0975    0.0000 C    0  0  0  0  0  0  0  0  0  0  0  0
   10.3507   -9.6002    0.0000 C    0  0  0  0  0  0  0  0  0  0  0  0
    8.5853  -11.0801    0.0000 C    0  0  0  0  0  0  0  0  0  0  0  0
    9.0383   -9.8263    0.0000 C    0  0  0  0  0  0  0  0  0  0  0  0
   10.8048  -15.0482    0.0000 C    0  0  0  0  0  0  0  0  0  0  0  0
   10.5712  -13.7401    0.0000 C    0  0  0  0  0  0  0  0  0  0  0  0
    9.7842  -15.9035    0.0000 C    0  0  0  0  0  0  0  0  0  0  0  0
    9.3249  -13.2828    0.0000 C    0  0  0  0  0  0  0  0  0  0  0  0
    8.5379  -15.4462    0.0000 C    0  0  0  0  0  0  0  0  0  0  0  0
    8.3043  -14.1382    0.0000 C    0  0  0  0  0  0  0  0  0  0  0  0
   11.8206   -9.8774    0.0000 C    0  0  0  0  0  0  0  0  0  0  0  0
   11.1559   -8.7262    0.0000 C    0  0  0  0  0  0  0  0  0  0  0  0
    9.8257   -8.7265    0.0000 C    0  0  0  0  0  0  0  0  0  0  0  0
  1  2  1  0  0  0  0
  1  3  1  0  0  0  0
  1  4  1  0  0  0  0
  1  5  1  0  0  0  0
  6  7  1  0  0  0  0
  6  8  2  0  0  0  0
  7  9  2  0  0  0  0
  8 10  1  0  0  0  0
  9 11  1  0  0  0  0
 10 11  2  0  0  0  0
  3  9  1  0  0  0  0
 12 13  1  0  0  0  0
 12 14  2  0  0  0  0
 13 15  2  0  0  0  0
 14 16  1  0  0  0  0
 15 17  1  0  0  0  0
 16 17  2  0  0  0  0
  3 17  1  0  0  0  0
 18 19  1  0  0  0  0
 18 20  2  0  0  0  0
 19 21  2  0  0  0  0
 20 22  1  0  0  0  0
 21 23  1  0  0  0  0
 22 23  2  0  0  0  0
  3 22  1  0  0  0  0
 24 25  1  0  0  0  0
 24 26  2  0  0  0  0
 25 27  2  0  0  0  0
 26 28  1  0  0  0  0
 27 29  1  0  0  0  0
 28 29  2  0  0  0  0
  4 26  1  0  0  0  0
 30 31  1  0  0  0  0
 30 32  2  0  0  0  0
 31 33  2  0  0  0  0
 32 34  1  0  0  0  0
 33 35  1  0  0  0  0
 34 35  2  0  0  0  0
  4 32  1  0  0  0  0
 36 37  1  0  0  0  0
 36 38  2  0  0  0  0
 37 39  2  0  0  0  0
 38 40  1  0  0  0  0
 39 41  1  0  0  0  0
 40 41  2  0  0  0  0
  4 36  1  0  0  0  0
 42 43  1  0  0  0  0
 42 44  2  0  0  0  0
 43 45  2  0  0  0  0
 44 46  1  0  0  0  0
 45 47  1  0  0  0  0
 46 47  2  0  0  0  0
  5 44  1  0  0  0  0
 48 49  1  0  0  0  0
 48 50  2  0  0  0  0
 49 51  2  0  0  0  0
 50 52  1  0  0  0  0
 51 53  1  0  0  0  0
 52 53  2  0  0  0  0
  5 48  1  0  0  0  0
 54 55  1  0  0  0  0
 54 56  2  0  0  0  0
 55 57  2  0  0  0  0
 56 58  1  0  0  0  0
 57 59  1  0  0  0  0
 58 59  2  0  0  0  0
  5 55  1  0  0  0  0
  2 60  1  0  0  0  0
 60 61  1  0  0  0  0
 61 62  1  0  0  0  0
M  END
> <NMREDATA_VERSION>
1.1

> <NMREDATA_LEVEL>
0

> <NMREDATA_SOLVENT>
toluene-d8

> <NMREDATA_TEMPERATURE>
248

> <NMREDATA_FORMULA>
C57H55P3RhS

> <NMREDATA_SMILES>
CCCS[Rh](P(c1ccccc1)(c1ccccc1)c1ccccc1)(P(c1ccccc1)(c1ccccc1)c1ccccc1)P(c1ccccc1)(c1ccccc1)c1ccccc1

> <NMREDATA_ASSIGNMENT>
Rh1, -59.00, 1

> <NMREDATA_1D_103Rh>
-59.00, L=Rh1

$$$$

  ACD/LABS03152413032D

 62 70  0  0  0  0  0  0  0  0  1 V2000
   13.8072  -11.0331    0.0000 Rh   0  0  0  0  0  0  0  0  0  0  0  0
   13.1425   -9.8819    0.0000 S    0  0  0  0  0  0  0  0  0  0  0  0
   14.9584  -10.3685    0.0000 P    0  0  0  0  0  0  0  0  0  0  0  0
   17.6737  -15.6562    0.0000 P    0  0  0  0  0  0  0  0  0  0  0  0
   11.5964  -12.8927    0.0000 P    0  0  0  0  0  0  0  0  0  0  0  0
   14.9021   -6.8500    0.0000 C    0  0  0  0  0  0  0  0  0  0  0  0
   15.3583   -8.1010    0.0000 C    0  0  0  0  0  0  0  0  0  0  0  0
   13.5941   -6.6228    0.0000 C    0  0  0  0  0  0  0  0  0  0  0  0
   14.5065   -9.1249    0.0000 C    0  0  0  0  0  0  0  0  0  0  0  0
   12.7423   -7.6468    0.0000 C    0  0  0  0  0  0  0  0  0  0  0  0
   13.1940   -8.8899    0.0000 C    0  0  0  0  0  0  0  0  0  0  0  0
   18.4120   -8.3745    0.0000 C    0  0  0  0  0  0  0  0  0  0  0  0
   17.2648   -7.7164    0.0000 C    0  0  0  0  0  0  0  0  0  0  0  0
   18.4127   -9.7045    0.0000 C    0  0  0  0  0  0  0  0  0  0  0  0
   16.1136   -8.3811    0.0000 C    0  0  0  0  0  0  0  0  0  0  0  0
   17.2615  -10.3692    0.0000 C    0  0  0  0  0  0  0  0  0  0  0  0
   16.1096   -9.7038    0.0000 C    0  0  0  0  0  0  0  0  0  0  0  0
   17.6131  -12.6623    0.0000 C    0  0  0  0  0  0  0  0  0  0  0  0
   16.9476  -13.8138    0.0000 C    0  0  0  0  0  0  0  0  0  0  0  0
   16.9530  -11.5190    0.0000 C    0  0  0  0  0  0  0  0  0  0  0  0
   15.6176  -13.8145    0.0000 C    0  0  0  0  0  0  0  0  0  0  0  0
   15.6230  -11.5197    0.0000 C    0  0  0  0  0  0  0  0  0  0  0  0
   14.9575  -12.6711    0.0000 C    0  0  0  0  0  0  0  0  0  0  0  0
   16.8866  -17.8196    0.0000 C    0  0  0  0  0  0  0  0  0  0  0  0
   15.8739  -18.6704    0.0000 C    0  0  0  0  0  0  0  0  0  0  0  0
   16.6606  -16.5072    0.0000 C    0  0  0  0  0  0  0  0  0  0  0  0
   14.6276  -18.2131    0.0000 C    0  0  0  0  0  0  0  0  0  0  0  0
   15.4147  -16.0497    0.0000 C    0  0  0  0  0  0  0  0  0  0  0  0
   14.4019  -16.9005    0.0000 C    0  0  0  0  0  0  0  0  0  0  0  0
   18.4732  -13.4962    0.0000 C    0  0  0  0  0  0  0  0  0  0  0  0
   19.4863  -12.6452    0.0000 C    0  0  0  0  0  0  0  0  0  0  0  0
   18.6943  -14.8009    0.0000 C    0  0  0  0  0  0  0  0  0  0  0  0
   20.7404  -13.0979    0.0000 C    0  0  0  0  0  0  0  0  0  0  0  0
   19.9451  -15.2661    0.0000 C    0  0  0  0  0  0  0  0  0  0  0  0
   20.9661  -14.4105    0.0000 C    0  0  0  0  0  0  0  0  0  0  0  0
   18.5290  -16.6768    0.0000 C    0  0  0  0  0  0  0  0  0  0  0  0
   18.0717  -17.9231    0.0000 C    0  0  0  0  0  0  0  0  0  0  0  0
   19.8416  -16.4512    0.0000 C    0  0  0  0  0  0  0  0  0  0  0  0
   18.9273  -18.9441    0.0000 C    0  0  0  0  0  0  0  0  0  0  0  0
   20.6926  -17.4643    0.0000 C    0  0  0  0  0  0  0  0  0  0  0  0
   20.2399  -18.7184    0.0000 C    0  0  0  0  0  0  0  0  0  0  0  0
   11.9948  -15.1594    0.0000 C    0  0  0  0  0  0  0  0  0  0  0  0
   12.8406  -16.1644    0.0000 C    0  0  0  0  0  0  0  0  0  0  0  0
   12.4474  -13.9058    0.0000 C    0  0  0  0  0  0  0  0  0  0  0  0
   14.1458  -15.9431    0.0000 C    0  0  0  0  0  0  0  0  0  0  0  0
   13.7600  -13.6801    0.0000 C    0  0  0  0  0  0  0  0  0  0  0  0
   14.6105  -14.6925    0.0000 C    0  0  0  0  0  0  0  0  0  0  0  0
   10.7414  -11.8719    0.0000 C    0  0  0  0  0  0  0  0  0  0  0  0
   11.1983  -10.6258    0.0000 C    0  0  0  0  0  0  0  0  0  0  0  0
    9.4288  -12.0975    0.0000 C    0  0  0  0  0  0  0  0  0  0  0  0
   10.3507   -9.6002    0.0000 C    0  0  0  0  0  0  0  0  0  0  0  0
    8.5853  -11.0801    0.0000 C    0  0  0  0  0  0  0  0  0  0  0  0
    9.0383   -9.8263    0.0000 C    0  0  0  0  0  0  0  0  0  0  0  0
   10.8048  -15.0482    0.0000 C    0  0  0  0  0  0  0  0  0  0  0  0
   10.5712  -13.7401    0.0000 C    0  0  0  0  0  0  0  0  0  0  0  0
    9.7842  -15.9035    0.0000 C    0  0  0  0  0  0  0  0  0  0  0  0
    9.3249  -13.2828    0.0000 C    0  0  0  0  0  0  0  0  0  0  0  0
    8.5379  -15.4462    0.0000 C    0  0  0  0  0  0  0  0  0  0  0  0
    8.3043  -14.1382    0.0000 C    0  0  0  0  0  0  0  0  0  0  0  0
   11.8125   -9.8819    0.0000 C    0  0  0  0  0  0  0  0  0  0  0  0
   11.1475  -11.0339    0.0000 C    0  0  0  0  0  0  0  0  0  0  0  0
   11.1475   -8.7301    0.0000 C    0  0  0  0  0  0  0  0  0  0  0  0
  1  2  1  0  0  0  0
  1  3  1  0  0  0  0
  1  4  1  0  0  0  0
  1  5  1  0  0  0  0
  6  7  1  0  0  0  0
  6  8  2  0  0  0  0
  7  9  2  0  0  0  0
  8 10  1  0  0  0  0
  9 11  1  0  0  0  0
 10 11  2  0  0  0  0
  3  9  1  0  0  0  0
 12 13  1  0  0  0  0
 12 14  2  0  0  0  0
 13 15  2  0  0  0  0
 14 16  1  0  0  0  0
 15 17  1  0  0  0  0
 16 17  2  0  0  0  0
  3 17  1  0  0  0  0
 18 19  1  0  0  0  0
 18 20  2  0  0  0  0
 19 21  2  0  0  0  0
 20 22  1  0  0  0  0
 21 23  1  0  0  0  0
 22 23  2  0  0  0  0
  3 22  1  0  0  0  0
 24 25  1  0  0  0  0
 24 26  2  0  0  0  0
 25 27  2  0  0  0  0
 26 28  1  0  0  0  0
 27 29  1  0  0  0  0
 28 29  2  0  0  0  0
  4 26  1  0  0  0  0
 30 31  1  0  0  0  0
 30 32  2  0  0  0  0
 31 33  2  0  0  0  0
 32 34  1  0  0  0  0
 33 35  1  0  0  0  0
 34 35  2  0  0  0  0
  4 32  1  0  0  0  0
 36 37  1  0  0  0  0
 36 38  2  0  0  0  0
 37 39  2  0  0  0  0
 38 40  1  0  0  0  0
 39 41  1  0  0  0  0
 40 41  2  0  0  0  0
  4 36  1  0  0  0  0
 42 43  1  0  0  0  0
 42 44  2  0  0  0  0
 43 45  2  0  0  0  0
 44 46  1  0  0  0  0
 45 47  1  0  0  0  0
 46 47  2  0  0  0  0
  5 44  1  0  0  0  0
 48 49  1  0  0  0  0
 48 50  2  0  0  0  0
 49 51  2  0  0  0  0
 50 52  1  0  0  0  0
 51 53  1  0  0  0  0
 52 53  2  0  0  0  0
  5 48  1  0  0  0  0
 54 55  1  0  0  0  0
 54 56  2  0  0  0  0
 55 57  2  0  0  0  0
 56 58  1  0  0  0  0
 57 59  1  0  0  0  0
 58 59  2  0  0  0  0
  5 55  1  0  0  0  0
 60 61  1  0  0  0  0
 60 62  1  0  0  0  0
  2 60  1  0  0  0  0
M  END
> <NMREDATA_VERSION>
1.1

> <NMREDATA_LEVEL>
0

> <NMREDATA_SOLVENT>
toluene-d8

> <NMREDATA_TEMPERATURE>
248

> <NMREDATA_FORMULA>
C57H55P3RhS

> <NMREDATA_SMILES>
CC(S[Rh](P(c1ccccc1)(c1ccccc1)c1ccccc1)(P(c1ccccc1)(c1ccccc1)c1ccccc1)P(c1ccccc1)(c1ccccc1)c1ccccc1)C

> <NMREDATA_ASSIGNMENT>
Rh1, 33.00, 1

> <NMREDATA_1D_103Rh>
33.00, L=Rh1

$$$$

  ACD/LABS03152413032D

 65 74  0  0  0  0  0  0  0  0  1 V2000
   13.8072  -11.0331    0.0000 Rh   0  0  0  0  0  0  0  0  0  0  0  0
   13.1425   -9.8819    0.0000 S    0  0  0  0  0  0  0  0  0  0  0  0
   14.9584  -10.3685    0.0000 P    0  0  0  0  0  0  0  0  0  0  0  0
   17.6737  -15.6562    0.0000 P    0  0  0  0  0  0  0  0  0  0  0  0
   11.5964  -12.8927    0.0000 P    0  0  0  0  0  0  0  0  0  0  0  0
   14.9021   -6.8500    0.0000 C    0  0  0  0  0  0  0  0  0  0  0  0
   15.3583   -8.1010    0.0000 C    0  0  0  0  0  0  0  0  0  0  0  0
   13.5941   -6.6228    0.0000 C    0  0  0  0  0  0  0  0  0  0  0  0
   14.5065   -9.1249    0.0000 C    0  0  0  0  0  0  0  0  0  0  0  0
   12.7423   -7.6468    0.0000 C    0  0  0  0  0  0  0  0  0  0  0  0
   13.1940   -8.8899    0.0000 C    0  0  0  0  0  0  0  0  0  0  0  0
   18.4120   -8.3745    0.0000 C    0  0  0  0  0  0  0  0  0  0  0  0
   17.2648   -7.7164    0.0000 C    0  0  0  0  0  0  0  0  0  0  0  0
   18.4127   -9.7045    0.0000 C    0  0  0  0  0  0  0  0  0  0  0  0
   16.1136   -8.3811    0.0000 C    0  0  0  0  0  0  0  0  0  0  0  0
   17.2615  -10.3692    0.0000 C    0  0  0  0  0  0  0  0  0  0  0  0
   16.1096   -9.7038    0.0000 C    0  0  0  0  0  0  0  0  0  0  0  0
   17.6131  -12.6623    0.0000 C    0  0  0  0  0  0  0  0  0  0  0  0
   16.9476  -13.8138    0.0000 C    0  0  0  0  0  0  0  0  0  0  0  0
   16.9530  -11.5190    0.0000 C    0  0  0  0  0  0  0  0  0  0  0  0
   15.6176  -13.8145    0.0000 C    0  0  0  0  0  0  0  0  0  0  0  0
   15.6230  -11.5197    0.0000 C    0  0  0  0  0  0  0  0  0  0  0  0
   14.9575  -12.6711    0.0000 C    0  0  0  0  0  0  0  0  0  0  0  0
   16.8866  -17.8196    0.0000 C    0  0  0  0  0  0  0  0  0  0  0  0
   15.8739  -18.6704    0.0000 C    0  0  0  0  0  0  0  0  0  0  0  0
   16.6606  -16.5072    0.0000 C    0  0  0  0  0  0  0  0  0  0  0  0
   14.6276  -18.2131    0.0000 C    0  0  0  0  0  0  0  0  0  0  0  0
   15.4147  -16.0497    0.0000 C    0  0  0  0  0  0  0  0  0  0  0  0
   14.4019  -16.9005    0.0000 C    0  0  0  0  0  0  0  0  0  0  0  0
   18.4732  -13.4962    0.0000 C    0  0  0  0  0  0  0  0  0  0  0  0
   19.4863  -12.6452    0.0000 C    0  0  0  0  0  0  0  0  0  0  0  0
   18.6943  -14.8009    0.0000 C    0  0  0  0  0  0  0  0  0  0  0  0
   20.7404  -13.0979    0.0000 C    0  0  0  0  0  0  0  0  0  0  0  0
   19.9451  -15.2661    0.0000 C    0  0  0  0  0  0  0  0  0  0  0  0
   20.9661  -14.4105    0.0000 C    0  0  0  0  0  0  0  0  0  0  0  0
   18.5290  -16.6768    0.0000 C    0  0  0  0  0  0  0  0  0  0  0  0
   18.0717  -17.9231    0.0000 C    0  0  0  0  0  0  0  0  0  0  0  0
   19.8416  -16.4512    0.0000 C    0  0  0  0  0  0  0  0  0  0  0  0
   18.9273  -18.9441    0.0000 C    0  0  0  0  0  0  0  0  0  0  0  0
   20.6926  -17.4643    0.0000 C    0  0  0  0  0  0  0  0  0  0  0  0
   20.2399  -18.7184    0.0000 C    0  0  0  0  0  0  0  0  0  0  0  0
   11.9948  -15.1594    0.0000 C    0  0  0  0  0  0  0  0  0  0  0  0
   12.8406  -16.1644    0.0000 C    0  0  0  0  0  0  0  0  0  0  0  0
   12.4474  -13.9058    0.0000 C    0  0  0  0  0  0  0  0  0  0  0  0
   14.1458  -15.9431    0.0000 C    0  0  0  0  0  0  0  0  0  0  0  0
   13.7600  -13.6801    0.0000 C    0  0  0  0  0  0  0  0  0  0  0  0
   14.6105  -14.6925    0.0000 C    0  0  0  0  0  0  0  0  0  0  0  0
   10.7414  -11.8719    0.0000 C    0  0  0  0  0  0  0  0  0  0  0  0
   11.1983  -10.6258    0.0000 C    0  0  0  0  0  0  0  0  0  0  0  0
    9.4288  -12.0975    0.0000 C    0  0  0  0  0  0  0  0  0  0  0  0
   10.3507   -9.6002    0.0000 C    0  0  0  0  0  0  0  0  0  0  0  0
    8.5853  -11.0801    0.0000 C    0  0  0  0  0  0  0  0  0  0  0  0
    9.0383   -9.8263    0.0000 C    0  0  0  0  0  0  0  0  0  0  0  0
   10.8048  -15.0482    0.0000 C    0  0  0  0  0  0  0  0  0  0  0  0
   10.5712  -13.7401    0.0000 C    0  0  0  0  0  0  0  0  0  0  0  0
    9.7842  -15.9035    0.0000 C    0  0  0  0  0  0  0  0  0  0  0  0
    9.3249  -13.2828    0.0000 C    0  0  0  0  0  0  0  0  0  0  0  0
    8.5379  -15.4462    0.0000 C    0  0  0  0  0  0  0  0  0  0  0  0
    8.3043  -14.1382    0.0000 C    0  0  0  0  0  0  0  0  0  0  0  0
   11.8125   -9.8819    0.0000 C    0  0  0  0  0  0  0  0  0  0  0  0
   11.1475  -11.0337    0.0000 C    0  0  0  0  0  0  0  0  0  0  0  0
   11.1475   -8.7300    0.0000 C    0  0  0  0  0  0  0  0  0  0  0  0
    9.8174  -11.0336    0.0000 C    0  0  0  0  0  0  0  0  0  0  0  0
    9.8175   -8.7300    0.0000 C    0  0  0  0  0  0  0  0  0  0  0  0
    9.1525   -9.8818    0.0000 C    0  0  0  0  0  0  0  0  0  0  0  0
  1  2  1  0  0  0  0
  1  3  1  0  0  0  0
  1  4  1  0  0  0  0
  1  5  1  0  0  0  0
  6  7  1  0  0  0  0
  6  8  2  0  0  0  0
  7  9  2  0  0  0  0
  8 10  1  0  0  0  0
  9 11  1  0  0  0  0
 10 11  2  0  0  0  0
  3  9  1  0  0  0  0
 12 13  1  0  0  0  0
 12 14  2  0  0  0  0
 13 15  2  0  0  0  0
 14 16  1  0  0  0  0
 15 17  1  0  0  0  0
 16 17  2  0  0  0  0
  3 17  1  0  0  0  0
 18 19  1  0  0  0  0
 18 20  2  0  0  0  0
 19 21  2  0  0  0  0
 20 22  1  0  0  0  0
 21 23  1  0  0  0  0
 22 23  2  0  0  0  0
  3 22  1  0  0  0  0
 24 25  1  0  0  0  0
 24 26  2  0  0  0  0
 25 27  2  0  0  0  0
 26 28  1  0  0  0  0
 27 29  1  0  0  0  0
 28 29  2  0  0  0  0
  4 26  1  0  0  0  0
 30 31  1  0  0  0  0
 30 32  2  0  0  0  0
 31 33  2  0  0  0  0
 32 34  1  0  0  0  0
 33 35  1  0  0  0  0
 34 35  2  0  0  0  0
  4 32  1  0  0  0  0
 36 37  1  0  0  0  0
 36 38  2  0  0  0  0
 37 39  2  0  0  0  0
 38 40  1  0  0  0  0
 39 41  1  0  0  0  0
 40 41  2  0  0  0  0
  4 36  1  0  0  0  0
 42 43  1  0  0  0  0
 42 44  2  0  0  0  0
 43 45  2  0  0  0  0
 44 46  1  0  0  0  0
 45 47  1  0  0  0  0
 46 47  2  0  0  0  0
  5 44  1  0  0  0  0
 48 49  1  0  0  0  0
 48 50  2  0  0  0  0
 49 51  2  0  0  0  0
 50 52  1  0  0  0  0
 51 53  1  0  0  0  0
 52 53  2  0  0  0  0
  5 48  1  0  0  0  0
 54 55  1  0  0  0  0
 54 56  2  0  0  0  0
 55 57  2  0  0  0  0
 56 58  1  0  0  0  0
 57 59  1  0  0  0  0
 58 59  2  0  0  0  0
  5 55  1  0  0  0  0
 60 61  1  0  0  0  0
 60 62  1  0  0  0  0
 61 63  1  0  0  0  0
 62 64  1  0  0  0  0
 63 65  1  0  0  0  0
 64 65  1  0  0  0  0
  2 60  1  0  0  0  0
M  END
> <NMREDATA_VERSION>
1.1

> <NMREDATA_LEVEL>
0

> <NMREDATA_SOLVENT>
toluene-d8

> <NMREDATA_TEMPERATURE>
248

> <NMREDATA_FORMULA>
C60H59P3RhS

> <NMREDATA_SMILES>
C1CCC(CC1)S[Rh](P(c1ccccc1)(c1ccccc1)c1ccccc1)(P(c1ccccc1)(c1ccccc1)c1ccccc1)P(c1ccccc1)(c1ccccc1)c1ccccc1

> <NMREDATA_ASSIGNMENT>
Rh1, 39.00, 1

> <NMREDATA_1D_103Rh>
39.00, L=Rh1

$$$$

  ACD/LABS03152413042D

 66 75  0  0  0  0  0  0  0  0  1 V2000
   13.8072  -11.0331    0.0000 Rh   0  0  0  0  0  0  0  0  0  0  0  0
   13.1425   -9.8819    0.0000 S    0  0  0  0  0  0  0  0  0  0  0  0
   14.9584  -10.3685    0.0000 P    0  0  0  0  0  0  0  0  0  0  0  0
   17.6737  -15.6562    0.0000 P    0  0  0  0  0  0  0  0  0  0  0  0
   11.5964  -12.8927    0.0000 P    0  0  0  0  0  0  0  0  0  0  0  0
   14.9021   -6.8500    0.0000 C    0  0  0  0  0  0  0  0  0  0  0  0
   15.3583   -8.1010    0.0000 C    0  0  0  0  0  0  0  0  0  0  0  0
   13.5941   -6.6228    0.0000 C    0  0  0  0  0  0  0  0  0  0  0  0
   14.5065   -9.1249    0.0000 C    0  0  0  0  0  0  0  0  0  0  0  0
   12.7423   -7.6468    0.0000 C    0  0  0  0  0  0  0  0  0  0  0  0
   13.1940   -8.8899    0.0000 C    0  0  0  0  0  0  0  0  0  0  0  0
   18.4120   -8.3745    0.0000 C    0  0  0  0  0  0  0  0  0  0  0  0
   17.2648   -7.7164    0.0000 C    0  0  0  0  0  0  0  0  0  0  0  0
   18.4127   -9.7045    0.0000 C    0  0  0  0  0  0  0  0  0  0  0  0
   16.1136   -8.3811    0.0000 C    0  0  0  0  0  0  0  0  0  0  0  0
   17.2615  -10.3692    0.0000 C    0  0  0  0  0  0  0  0  0  0  0  0
   16.1096   -9.7038    0.0000 C    0  0  0  0  0  0  0  0  0  0  0  0
   17.6131  -12.6623    0.0000 C    0  0  0  0  0  0  0  0  0  0  0  0
   16.9476  -13.8138    0.0000 C    0  0  0  0  0  0  0  0  0  0  0  0
   16.9530  -11.5190    0.0000 C    0  0  0  0  0  0  0  0  0  0  0  0
   15.6176  -13.8145    0.0000 C    0  0  0  0  0  0  0  0  0  0  0  0
   15.6230  -11.5197    0.0000 C    0  0  0  0  0  0  0  0  0  0  0  0
   14.9575  -12.6711    0.0000 C    0  0  0  0  0  0  0  0  0  0  0  0
   16.8866  -17.8196    0.0000 C    0  0  0  0  0  0  0  0  0  0  0  0
   15.8739  -18.6704    0.0000 C    0  0  0  0  0  0  0  0  0  0  0  0
   16.6606  -16.5072    0.0000 C    0  0  0  0  0  0  0  0  0  0  0  0
   14.6276  -18.2131    0.0000 C    0  0  0  0  0  0  0  0  0  0  0  0
   15.4147  -16.0497    0.0000 C    0  0  0  0  0  0  0  0  0  0  0  0
   14.4019  -16.9005    0.0000 C    0  0  0  0  0  0  0  0  0  0  0  0
   18.4732  -13.4962    0.0000 C    0  0  0  0  0  0  0  0  0  0  0  0
   19.4863  -12.6452    0.0000 C    0  0  0  0  0  0  0  0  0  0  0  0
   18.6943  -14.8009    0.0000 C    0  0  0  0  0  0  0  0  0  0  0  0
   20.7404  -13.0979    0.0000 C    0  0  0  0  0  0  0  0  0  0  0  0
   19.9451  -15.2661    0.0000 C    0  0  0  0  0  0  0  0  0  0  0  0
   20.9661  -14.4105    0.0000 C    0  0  0  0  0  0  0  0  0  0  0  0
   18.5290  -16.6768    0.0000 C    0  0  0  0  0  0  0  0  0  0  0  0
   18.0717  -17.9231    0.0000 C    0  0  0  0  0  0  0  0  0  0  0  0
   19.8416  -16.4512    0.0000 C    0  0  0  0  0  0  0  0  0  0  0  0
   18.9273  -18.9441    0.0000 C    0  0  0  0  0  0  0  0  0  0  0  0
   20.6926  -17.4643    0.0000 C    0  0  0  0  0  0  0  0  0  0  0  0
   20.2399  -18.7184    0.0000 C    0  0  0  0  0  0  0  0  0  0  0  0
   11.9948  -15.1594    0.0000 C    0  0  0  0  0  0  0  0  0  0  0  0
   12.8406  -16.1644    0.0000 C    0  0  0  0  0  0  0  0  0  0  0  0
   12.4474  -13.9058    0.0000 C    0  0  0  0  0  0  0  0  0  0  0  0
   14.1458  -15.9431    0.0000 C    0  0  0  0  0  0  0  0  0  0  0  0
   13.7600  -13.6801    0.0000 C    0  0  0  0  0  0  0  0  0  0  0  0
   14.6105  -14.6925    0.0000 C    0  0  0  0  0  0  0  0  0  0  0  0
   10.7414  -11.8719    0.0000 C    0  0  0  0  0  0  0  0  0  0  0  0
   11.1983  -10.6258    0.0000 C    0  0  0  0  0  0  0  0  0  0  0  0
    9.4288  -12.0975    0.0000 C    0  0  0  0  0  0  0  0  0  0  0  0
   10.3507   -9.6002    0.0000 C    0  0  0  0  0  0  0  0  0  0  0  0
    8.5853  -11.0801    0.0000 C    0  0  0  0  0  0  0  0  0  0  0  0
    9.0383   -9.8263    0.0000 C    0  0  0  0  0  0  0  0  0  0  0  0
   10.8048  -15.0482    0.0000 C    0  0  0  0  0  0  0  0  0  0  0  0
   10.5712  -13.7401    0.0000 C    0  0  0  0  0  0  0  0  0  0  0  0
    9.7842  -15.9035    0.0000 C    0  0  0  0  0  0  0  0  0  0  0  0
    9.3249  -13.2828    0.0000 C    0  0  0  0  0  0  0  0  0  0  0  0
    8.5379  -15.4462    0.0000 C    0  0  0  0  0  0  0  0  0  0  0  0
    8.3043  -14.1382    0.0000 C    0  0  0  0  0  0  0  0  0  0  0  0
   10.8163   -8.5408    0.0000 C    0  0  0  0  0  0  0  0  0  0  0  0
   10.8154   -7.2108    0.0000 C    0  0  0  0  0  0  0  0  0  0  0  0
    9.6632   -6.5466    0.0000 C    0  0  0  0  0  0  0  0  0  0  0  0
   11.9668   -6.5450    0.0000 C    0  0  0  0  0  0  0  0  0  0  0  0
    9.6624   -5.2165    0.0000 C    0  0  0  0  0  0  0  0  0  0  0  0
   11.9660   -5.2151    0.0000 C    0  0  0  0  0  0  0  0  0  0  0  0
   10.8137   -4.5508    0.0000 C    0  0  0  0  0  0  0  0  0  0  0  0
  1  2  1  0  0  0  0
  1  3  1  0  0  0  0
  1  4  1  0  0  0  0
  1  5  1  0  0  0  0
  6  7  1  0  0  0  0
  6  8  2  0  0  0  0
  7  9  2  0  0  0  0
  8 10  1  0  0  0  0
  9 11  1  0  0  0  0
 10 11  2  0  0  0  0
  3  9  1  0  0  0  0
 12 13  1  0  0  0  0
 12 14  2  0  0  0  0
 13 15  2  0  0  0  0
 14 16  1  0  0  0  0
 15 17  1  0  0  0  0
 16 17  2  0  0  0  0
  3 17  1  0  0  0  0
 18 19  1  0  0  0  0
 18 20  2  0  0  0  0
 19 21  2  0  0  0  0
 20 22  1  0  0  0  0
 21 23  1  0  0  0  0
 22 23  2  0  0  0  0
  3 22  1  0  0  0  0
 24 25  1  0  0  0  0
 24 26  2  0  0  0  0
 25 27  2  0  0  0  0
 26 28  1  0  0  0  0
 27 29  1  0  0  0  0
 28 29  2  0  0  0  0
  4 26  1  0  0  0  0
 30 31  1  0  0  0  0
 30 32  2  0  0  0  0
 31 33  2  0  0  0  0
 32 34  1  0  0  0  0
 33 35  1  0  0  0  0
 34 35  2  0  0  0  0
  4 32  1  0  0  0  0
 36 37  1  0  0  0  0
 36 38  2  0  0  0  0
 37 39  2  0  0  0  0
 38 40  1  0  0  0  0
 39 41  1  0  0  0  0
 40 41  2  0  0  0  0
  4 36  1  0  0  0  0
 42 43  1  0  0  0  0
 42 44  2  0  0  0  0
 43 45  2  0  0  0  0
 44 46  1  0  0  0  0
 45 47  1  0  0  0  0
 46 47  2  0  0  0  0
  5 44  1  0  0  0  0
 48 49  1  0  0  0  0
 48 50  2  0  0  0  0
 49 51  2  0  0  0  0
 50 52  1  0  0  0  0
 51 53  1  0  0  0  0
 52 53  2  0  0  0  0
  5 48  1  0  0  0  0
 54 55  1  0  0  0  0
 54 56  2  0  0  0  0
 55 57  2  0  0  0  0
 56 58  1  0  0  0  0
 57 59  1  0  0  0  0
 58 59  2  0  0  0  0
  5 55  1  0  0  0  0
  2 60  1  0  0  0  0
 61 62  1  0  0  0  0
 61 63  2  0  0  0  0
 62 64  2  0  0  0  0
 63 65  1  0  0  0  0
 64 66  1  0  0  0  0
 65 66  2  0  0  0  0
 60 61  1  0  0  0  0
M  END
> <NMREDATA_VERSION>
1.1

> <NMREDATA_LEVEL>
0

> <NMREDATA_SOLVENT>
toluene-d8

> <NMREDATA_TEMPERATURE>
248

> <NMREDATA_FORMULA>
C61H55P3RhS

> <NMREDATA_SMILES>
c1ccc(cc1)CS[Rh](P(c1ccccc1)(c1ccccc1)c1ccccc1)(P(c1ccccc1)(c1ccccc1)c1ccccc1)P(c1ccccc1)(c1ccccc1)c1ccccc1

> <NMREDATA_ASSIGNMENT>
Rh1, -25.00, 1

> <NMREDATA_1D_103Rh>
-25.00, L=Rh1

$$$$

  ACD/LABS03152413052D

 65 74  0  0  0  0  0  0  0  0  1 V2000
   13.8072  -11.0331    0.0000 Rh   0  0  0  0  0  0  0  0  0  0  0  0
   13.1425   -9.8819    0.0000 S    0  0  0  0  0  0  0  0  0  0  0  0
   14.9584  -10.3685    0.0000 P    0  0  0  0  0  0  0  0  0  0  0  0
   17.6737  -15.6562    0.0000 P    0  0  0  0  0  0  0  0  0  0  0  0
   11.5964  -12.8927    0.0000 P    0  0  0  0  0  0  0  0  0  0  0  0
   14.9021   -6.8500    0.0000 C    0  0  0  0  0  0  0  0  0  0  0  0
   15.3583   -8.1010    0.0000 C    0  0  0  0  0  0  0  0  0  0  0  0
   13.5941   -6.6228    0.0000 C    0  0  0  0  0  0  0  0  0  0  0  0
   14.5065   -9.1249    0.0000 C    0  0  0  0  0  0  0  0  0  0  0  0
   12.7423   -7.6468    0.0000 C    0  0  0  0  0  0  0  0  0  0  0  0
   13.1940   -8.8899    0.0000 C    0  0  0  0  0  0  0  0  0  0  0  0
   18.4120   -8.3745    0.0000 C    0  0  0  0  0  0  0  0  0  0  0  0
   17.2648   -7.7164    0.0000 C    0  0  0  0  0  0  0  0  0  0  0  0
   18.4127   -9.7045    0.0000 C    0  0  0  0  0  0  0  0  0  0  0  0
   16.1136   -8.3811    0.0000 C    0  0  0  0  0  0  0  0  0  0  0  0
   17.2615  -10.3692    0.0000 C    0  0  0  0  0  0  0  0  0  0  0  0
   16.1096   -9.7038    0.0000 C    0  0  0  0  0  0  0  0  0  0  0  0
   17.6131  -12.6623    0.0000 C    0  0  0  0  0  0  0  0  0  0  0  0
   16.9476  -13.8138    0.0000 C    0  0  0  0  0  0  0  0  0  0  0  0
   16.9530  -11.5190    0.0000 C    0  0  0  0  0  0  0  0  0  0  0  0
   15.6176  -13.8145    0.0000 C    0  0  0  0  0  0  0  0  0  0  0  0
   15.6230  -11.5197    0.0000 C    0  0  0  0  0  0  0  0  0  0  0  0
   14.9575  -12.6711    0.0000 C    0  0  0  0  0  0  0  0  0  0  0  0
   16.8866  -17.8196    0.0000 C    0  0  0  0  0  0  0  0  0  0  0  0
   15.8739  -18.6704    0.0000 C    0  0  0  0  0  0  0  0  0  0  0  0
   16.6606  -16.5072    0.0000 C    0  0  0  0  0  0  0  0  0  0  0  0
   14.6276  -18.2131    0.0000 C    0  0  0  0  0  0  0  0  0  0  0  0
   15.4147  -16.0497    0.0000 C    0  0  0  0  0  0  0  0  0  0  0  0
   14.4019  -16.9005    0.0000 C    0  0  0  0  0  0  0  0  0  0  0  0
   18.4732  -13.4962    0.0000 C    0  0  0  0  0  0  0  0  0  0  0  0
   19.4863  -12.6452    0.0000 C    0  0  0  0  0  0  0  0  0  0  0  0
   18.6943  -14.8009    0.0000 C    0  0  0  0  0  0  0  0  0  0  0  0
   20.7404  -13.0979    0.0000 C    0  0  0  0  0  0  0  0  0  0  0  0
   19.9451  -15.2661    0.0000 C    0  0  0  0  0  0  0  0  0  0  0  0
   20.9661  -14.4105    0.0000 C    0  0  0  0  0  0  0  0  0  0  0  0
   18.5290  -16.6768    0.0000 C    0  0  0  0  0  0  0  0  0  0  0  0
   18.0717  -17.9231    0.0000 C    0  0  0  0  0  0  0  0  0  0  0  0
   19.8416  -16.4512    0.0000 C    0  0  0  0  0  0  0  0  0  0  0  0
   18.9273  -18.9441    0.0000 C    0  0  0  0  0  0  0  0  0  0  0  0
   20.6926  -17.4643    0.0000 C    0  0  0  0  0  0  0  0  0  0  0  0
   20.2399  -18.7184    0.0000 C    0  0  0  0  0  0  0  0  0  0  0  0
   11.9948  -15.1594    0.0000 C    0  0  0  0  0  0  0  0  0  0  0  0
   12.8406  -16.1644    0.0000 C    0  0  0  0  0  0  0  0  0  0  0  0
   12.4474  -13.9058    0.0000 C    0  0  0  0  0  0  0  0  0  0  0  0
   14.1458  -15.9431    0.0000 C    0  0  0  0  0  0  0  0  0  0  0  0
   13.7600  -13.6801    0.0000 C    0  0  0  0  0  0  0  0  0  0  0  0
   14.6105  -14.6925    0.0000 C    0  0  0  0  0  0  0  0  0  0  0  0
   10.7414  -11.8719    0.0000 C    0  0  0  0  0  0  0  0  0  0  0  0
   11.1983  -10.6258    0.0000 C    0  0  0  0  0  0  0  0  0  0  0  0
    9.4288  -12.0975    0.0000 C    0  0  0  0  0  0  0  0  0  0  0  0
   10.3507   -9.6002    0.0000 C    0  0  0  0  0  0  0  0  0  0  0  0
    8.5853  -11.0801    0.0000 C    0  0  0  0  0  0  0  0  0  0  0  0
    9.0383   -9.8263    0.0000 C    0  0  0  0  0  0  0  0  0  0  0  0
   10.8048  -15.0482    0.0000 C    0  0  0  0  0  0  0  0  0  0  0  0
   10.5712  -13.7401    0.0000 C    0  0  0  0  0  0  0  0  0  0  0  0
    9.7842  -15.9035    0.0000 C    0  0  0  0  0  0  0  0  0  0  0  0
    9.3249  -13.2828    0.0000 C    0  0  0  0  0  0  0  0  0  0  0  0
    8.5379  -15.4462    0.0000 C    0  0  0  0  0  0  0  0  0  0  0  0
    8.3043  -14.1382    0.0000 C    0  0  0  0  0  0  0  0  0  0  0  0
   11.8125   -9.8819    0.0000 C    0  0  0  0  0  0  0  0  0  0  0  0
   11.1475  -11.0337    0.0000 C    0  0  0  0  0  0  0  0  0  0  0  0
   11.1475   -8.7300    0.0000 C    0  0  0  0  0  0  0  0  0  0  0  0
    9.8174  -11.0336    0.0000 C    0  0  0  0  0  0  0  0  0  0  0  0
    9.8175   -8.7300    0.0000 C    0  0  0  0  0  0  0  0  0  0  0  0
    9.1525   -9.8818    0.0000 C    0  0  0  0  0  0  0  0  0  0  0  0
  1  2  1  0  0  0  0
  1  3  1  0  0  0  0
  1  4  1  0  0  0  0
  1  5  1  0  0  0  0
  6  7  1  0  0  0  0
  6  8  2  0  0  0  0
  7  9  2  0  0  0  0
  8 10  1  0  0  0  0
  9 11  1  0  0  0  0
 10 11  2  0  0  0  0
  3  9  1  0  0  0  0
 12 13  1  0  0  0  0
 12 14  2  0  0  0  0
 13 15  2  0  0  0  0
 14 16  1  0  0  0  0
 15 17  1  0  0  0  0
 16 17  2  0  0  0  0
  3 17  1  0  0  0  0
 18 19  1  0  0  0  0
 18 20  2  0  0  0  0
 19 21  2  0  0  0  0
 20 22  1  0  0  0  0
 21 23  1  0  0  0  0
 22 23  2  0  0  0  0
  3 22  1  0  0  0  0
 24 25  1  0  0  0  0
 24 26  2  0  0  0  0
 25 27  2  0  0  0  0
 26 28  1  0  0  0  0
 27 29  1  0  0  0  0
 28 29  2  0  0  0  0
  4 26  1  0  0  0  0
 30 31  1  0  0  0  0
 30 32  2  0  0  0  0
 31 33  2  0  0  0  0
 32 34  1  0  0  0  0
 33 35  1  0  0  0  0
 34 35  2  0  0  0  0
  4 32  1  0  0  0  0
 36 37  1  0  0  0  0
 36 38  2  0  0  0  0
 37 39  2  0  0  0  0
 38 40  1  0  0  0  0
 39 41  1  0  0  0  0
 40 41  2  0  0  0  0
  4 36  1  0  0  0  0
 42 43  1  0  0  0  0
 42 44  2  0  0  0  0
 43 45  2  0  0  0  0
 44 46  1  0  0  0  0
 45 47  1  0  0  0  0
 46 47  2  0  0  0  0
  5 44  1  0  0  0  0
 48 49  1  0  0  0  0
 48 50  2  0  0  0  0
 49 51  2  0  0  0  0
 50 52  1  0  0  0  0
 51 53  1  0  0  0  0
 52 53  2  0  0  0  0
  5 48  1  0  0  0  0
 54 55  1  0  0  0  0
 54 56  2  0  0  0  0
 55 57  2  0  0  0  0
 56 58  1  0  0  0  0
 57 59  1  0  0  0  0
 58 59  2  0  0  0  0
  5 55  1  0  0  0  0
 60 61  1  0  0  0  0
 60 62  2  0  0  0  0
 61 63  2  0  0  0  0
 62 64  1  0  0  0  0
 63 65  1  0  0  0  0
 64 65  2  0  0  0  0
  2 60  1  0  0  0  0
M  END
> <NMREDATA_VERSION>
1.1

> <NMREDATA_LEVEL>
0

> <NMREDATA_SOLVENT>
toluene-d8

> <NMREDATA_TEMPERATURE>
248

> <NMREDATA_FORMULA>
C60H53P3RhS

> <NMREDATA_SMILES>
c1ccc(cc1)S[Rh](P(c1ccccc1)(c1ccccc1)c1ccccc1)(P(c1ccccc1)(c1ccccc1)c1ccccc1)P(c1ccccc1)(c1ccccc1)c1ccccc1

> <NMREDATA_ASSIGNMENT>
Rh1, -164.00, 1

> <NMREDATA_1D_103Rh>
-164.00, L=Rh1

$$$$

  ACD/LABS03152413052D

 78 89  0  0  0  0  0  0  0  0  1 V2000
   13.7308   -4.5108    0.0000 C    0  0  0  0  0  0  0  0  0  0  0  0
   13.7308   -5.8408    0.0000 C    0  0  0  0  0  0  0  0  0  0  0  0
   12.5789   -3.8458    0.0000 C    0  0  0  0  0  0  0  0  0  0  0  0
   12.5789   -6.5058    0.0000 C    0  0  0  0  0  0  0  0  0  0  0  0
   11.4271   -4.5108    0.0000 C    0  0  0  0  0  0  0  0  0  0  0  0
   11.4271   -5.8408    0.0000 C    0  0  0  0  0  0  0  0  0  0  0  0
   10.9746   -4.7992    0.0000 C    0  0  0  0  0  0  0  0  0  0  0  0
   10.9746   -6.1292    0.0000 C    0  0  0  0  0  0  0  0  0  0  0  0
    9.8227   -4.1342    0.0000 C    0  0  0  0  0  0  0  0  0  0  0  0
    9.8227   -6.7942    0.0000 C    0  0  0  0  0  0  0  0  0  0  0  0
    8.6709   -4.7992    0.0000 C    0  0  0  0  0  0  0  0  0  0  0  0
    8.6709   -6.1292    0.0000 C    0  0  0  0  0  0  0  0  0  0  0  0
    8.8114   -7.1387    0.0000 C    0  0  0  0  0  0  0  0  0  0  0  0
    8.8114   -8.4687    0.0000 C    0  0  0  0  0  0  0  0  0  0  0  0
    7.6595   -6.4737    0.0000 C    0  0  0  0  0  0  0  0  0  0  0  0
    7.6595   -9.1337    0.0000 C    0  0  0  0  0  0  0  0  0  0  0  0
    6.5077   -7.1387    0.0000 C    0  0  0  0  0  0  0  0  0  0  0  0
    6.5077   -8.4687    0.0000 C    0  0  0  0  0  0  0  0  0  0  0  0
   13.8072  -11.0331    0.0000 Rh   0  0  0  0  0  0  0  0  0  0  0  0
   13.1425   -9.8819    0.0000 S    0  0  0  0  0  0  0  0  0  0  0  0
   14.9584  -10.3685    0.0000 P    0  0  0  0  0  0  0  0  0  0  0  0
   17.6737  -15.6562    0.0000 P    0  0  0  0  0  0  0  0  0  0  0  0
   11.5964  -12.8927    0.0000 P    0  0  0  0  0  0  0  0  0  0  0  0
   14.9021   -6.8500    0.0000 C    0  0  0  0  0  0  0  0  0  0  0  0
   15.3583   -8.1010    0.0000 C    0  0  0  0  0  0  0  0  0  0  0  0
   13.5941   -6.6228    0.0000 C    0  0  0  0  0  0  0  0  0  0  0  0
   14.5065   -9.1249    0.0000 C    0  0  0  0  0  0  0  0  0  0  0  0
   12.7423   -7.6468    0.0000 C    0  0  0  0  0  0  0  0  0  0  0  0
   13.1940   -8.8899    0.0000 C    0  0  0  0  0  0  0  0  0  0  0  0
   18.4120   -8.3745    0.0000 C    0  0  0  0  0  0  0  0  0  0  0  0
   17.2648   -7.7164    0.0000 C    0  0  0  0  0  0  0  0  0  0  0  0
   18.4127   -9.7045    0.0000 C    0  0  0  0  0  0  0  0  0  0  0  0
   16.1136   -8.3811    0.0000 C    0  0  0  0  0  0  0  0  0  0  0  0
   17.2615  -10.3692    0.0000 C    0  0  0  0  0  0  0  0  0  0  0  0
   16.1096   -9.7038    0.0000 C    0  0  0  0  0  0  0  0  0  0  0  0
   17.6131  -12.6623    0.0000 C    0  0  0  0  0  0  0  0  0  0  0  0
   16.9476  -13.8138    0.0000 C    0  0  0  0  0  0  0  0  0  0  0  0
   16.9530  -11.5190    0.0000 C    0  0  0  0  0  0  0  0  0  0  0  0
   15.6176  -13.8145    0.0000 C    0  0  0  0  0  0  0  0  0  0  0  0
   15.6230  -11.5197    0.0000 C    0  0  0  0  0  0  0  0  0  0  0  0
   14.9575  -12.6711    0.0000 C    0  0  0  0  0  0  0  0  0  0  0  0
   16.8866  -17.8196    0.0000 C    0  0  0  0  0  0  0  0  0  0  0  0
   15.8739  -18.6704    0.0000 C    0  0  0  0  0  0  0  0  0  0  0  0
   16.6606  -16.5072    0.0000 C    0  0  0  0  0  0  0  0  0  0  0  0
   14.6276  -18.2131    0.0000 C    0  0  0  0  0  0  0  0  0  0  0  0
   15.4147  -16.0497    0.0000 C    0  0  0  0  0  0  0  0  0  0  0  0
   14.4019  -16.9005    0.0000 C    0  0  0  0  0  0  0  0  0  0  0  0
   18.4732  -13.4962    0.0000 C    0  0  0  0  0  0  0  0  0  0  0  0
   19.4863  -12.6452    0.0000 C    0  0  0  0  0  0  0  0  0  0  0  0
   18.6943  -14.8009    0.0000 C    0  0  0  0  0  0  0  0  0  0  0  0
   20.7404  -13.0979    0.0000 C    0  0  0  0  0  0  0  0  0  0  0  0
   19.9451  -15.2661    0.0000 C    0  0  0  0  0  0  0  0  0  0  0  0
   20.9661  -14.4105    0.0000 C    0  0  0  0  0  0  0  0  0  0  0  0
   18.5290  -16.6768    0.0000 C    0  0  0  0  0  0  0  0  0  0  0  0
   18.0717  -17.9231    0.0000 C    0  0  0  0  0  0  0  0  0  0  0  0
   19.8416  -16.4512    0.0000 C    0  0  0  0  0  0  0  0  0  0  0  0
   18.9273  -18.9441    0.0000 C    0  0  0  0  0  0  0  0  0  0  0  0
   20.6926  -17.4643    0.0000 C    0  0  0  0  0  0  0  0  0  0  0  0
   20.2399  -18.7184    0.0000 C    0  0  0  0  0  0  0  0  0  0  0  0
   11.9948  -15.1594    0.0000 C    0  0  0  0  0  0  0  0  0  0  0  0
   12.8406  -16.1644    0.0000 C    0  0  0  0  0  0  0  0  0  0  0  0
   12.4474  -13.9058    0.0000 C    0  0  0  0  0  0  0  0  0  0  0  0
   14.1458  -15.9431    0.0000 C    0  0  0  0  0  0  0  0  0  0  0  0
   13.7600  -13.6801    0.0000 C    0  0  0  0  0  0  0  0  0  0  0  0
   14.6105  -14.6925    0.0000 C    0  0  0  0  0  0  0  0  0  0  0  0
   10.7414  -11.8719    0.0000 C    0  0  0  0  0  0  0  0  0  0  0  0
   11.1983  -10.6258    0.0000 C    0  0  0  0  0  0  0  0  0  0  0  0
    9.4288  -12.0975    0.0000 C    0  0  0  0  0  0  0  0  0  0  0  0
   10.3507   -9.6002    0.0000 C    0  0  0  0  0  0  0  0  0  0  0  0
    8.5853  -11.0801    0.0000 C    0  0  0  0  0  0  0  0  0  0  0  0
    9.0383   -9.8263    0.0000 C    0  0  0  0  0  0  0  0  0  0  0  0
   10.8048  -15.0482    0.0000 C    0  0  0  0  0  0  0  0  0  0  0  0
   10.5712  -13.7401    0.0000 C    0  0  0  0  0  0  0  0  0  0  0  0
    9.7842  -15.9035    0.0000 C    0  0  0  0  0  0  0  0  0  0  0  0
    9.3249  -13.2828    0.0000 C    0  0  0  0  0  0  0  0  0  0  0  0
    8.5379  -15.4462    0.0000 C    0  0  0  0  0  0  0  0  0  0  0  0
    8.3043  -14.1382    0.0000 C    0  0  0  0  0  0  0  0  0  0  0  0
   11.8418   -8.8774    0.0000 C    0  0  0  0  0  0  0  0  0  0  0  0
  1  2  1  0  0  0  0
  1  3  2  0  0  0  0
  2  4  2  0  0  0  0
  3  5  1  0  0  0  0
  4  6  1  0  0  0  0
  5  6  2  0  0  0  0
  7  8  1  0  0  0  0
  7  9  2  0  0  0  0
  8 10  2  0  0  0  0
  9 11  1  0  0  0  0
 10 12  1  0  0  0  0
 11 12  2  0  0  0  0
 13 14  1  0  0  0  0
 13 15  2  0  0  0  0
 14 16  2  0  0  0  0
 15 17  1  0  0  0  0
 16 18  1  0  0  0  0
 17 18  2  0  0  0  0
 19 20  1  0  0  0  0
 19 21  1  0  0  0  0
 19 22  1  0  0  0  0
 19 23  1  0  0  0  0
 24 25  1  0  0  0  0
 24 26  2  0  0  0  0
 25 27  2  0  0  0  0
 26 28  1  0  0  0  0
 27 29  1  0  0  0  0
 28 29  2  0  0  0  0
 21 27  1  0  0  0  0
 30 31  1  0  0  0  0
 30 32  2  0  0  0  0
 31 33  2  0  0  0  0
 32 34  1  0  0  0  0
 33 35  1  0  0  0  0
 34 35  2  0  0  0  0
 21 35  1  0  0  0  0
 36 37  1  0  0  0  0
 36 38  2  0  0  0  0
 37 39  2  0  0  0  0
 38 40  1  0  0  0  0
 39 41  1  0  0  0  0
 40 41  2  0  0  0  0
 21 40  1  0  0  0  0
 42 43  1  0  0  0  0
 42 44  2  0  0  0  0
 43 45  2  0  0  0  0
 44 46  1  0  0  0  0
 45 47  1  0  0  0  0
 46 47  2  0  0  0  0
 22 44  1  0  0  0  0
 48 49  1  0  0  0  0
 48 50  2  0  0  0  0
 49 51  2  0  0  0  0
 50 52  1  0  0  0  0
 51 53  1  0  0  0  0
 52 53  2  0  0  0  0
 22 50  1  0  0  0  0
 54 55  1  0  0  0  0
 54 56  2  0  0  0  0
 55 57  2  0  0  0  0
 56 58  1  0  0  0  0
 57 59  1  0  0  0  0
 58 59  2  0  0  0  0
 22 54  1  0  0  0  0
 60 61  1  0  0  0  0
 60 62  2  0  0  0  0
 61 63  2  0  0  0  0
 62 64  1  0  0  0  0
 63 65  1  0  0  0  0
 64 65  2  0  0  0  0
 23 62  1  0  0  0  0
 66 67  1  0  0  0  0
 66 68  2  0  0  0  0
 67 69  2  0  0  0  0
 68 70  1  0  0  0  0
 69 71  1  0  0  0  0
 70 71  2  0  0  0  0
 23 66  1  0  0  0  0
 72 73  1  0  0  0  0
 72 74  2  0  0  0  0
 73 75  2  0  0  0  0
 74 76  1  0  0  0  0
 75 77  1  0  0  0  0
 76 77  2  0  0  0  0
 23 73  1  0  0  0  0
 20 78  1  0  0  0  0
 14 78  1  0  0  0  0
  8 78  1  0  0  0  0
  4 78  1  0  0  0  0
M  END
> <NMREDATA_VERSION>
1.1

> <NMREDATA_LEVEL>
0

> <NMREDATA_SOLVENT>
toluene-d8

> <NMREDATA_TEMPERATURE>
248

> <NMREDATA_FORMULA>
C73H63P3RhS

> <NMREDATA_SMILES>
c1ccc(cc1)C(c1ccccc1)(c1ccccc1)S[Rh](P(c1ccccc1)(c1ccccc1)c1ccccc1)(P(c1ccccc1)(c1ccccc1)c1ccccc1)P(c1ccccc1)(c1ccccc1)c1ccccc1

> <NMREDATA_ASSIGNMENT>
Rh19, -338.00, 19

> <NMREDATA_1D_103Rh>
-338.00, L=Rh19

$$$$

  ACD/LABS03152413072D

 70 79  0  0  0  0  0  0  0  0  1 V2000
    9.2347   -8.5647    0.0000 C    0  0  0  0  0  0  0  0  0  0  0  0
   10.2549   -9.4250    0.0000 C    0  0  0  0  0  0  0  0  0  0  0  0
    7.9839   -9.0261    0.0000 C    0  0  0  0  0  0  0  0  0  0  0  0
   10.0241  -10.7290    0.0000 C    0  0  0  0  0  0  0  0  0  0  0  0
    7.7532  -10.3390    0.0000 C    0  0  0  0  0  0  0  0  0  0  0  0
    8.7733  -11.1904    0.0000 C    0  0  0  0  0  0  0  0  0  0  0  0
   15.1947  -10.2854    0.0000 Rh   0  0  0  0  0  0  0  0  0  0  0  0
   12.9778   -8.4228    0.0000 S    0  0  0  0  0  0  0  0  0  0  0  0
   14.1840  -11.1462    0.0000 P    0  0  0  0  0  0  0  0  0  0  0  0
   17.4121   -8.4139    0.0000 P    0  0  0  0  0  0  0  0  0  0  0  0
   19.0886  -14.8888    0.0000 P    0  0  0  0  0  0  0  0  0  0  0  0
   15.9930  -14.1525    0.0000 C    0  0  0  0  0  0  0  0  0  0  0  0
   14.9729  -13.3011    0.0000 C    0  0  0  0  0  0  0  0  0  0  0  0
   17.2439  -13.6911    0.0000 C    0  0  0  0  0  0  0  0  0  0  0  0
   15.1947  -11.9882    0.0000 C    0  0  0  0  0  0  0  0  0  0  0  0
   17.4657  -12.3872    0.0000 C    0  0  0  0  0  0  0  0  0  0  0  0
   16.4455  -11.5362    0.0000 C    0  0  0  0  0  0  0  0  0  0  0  0
   11.6292  -14.1967    0.0000 C    0  0  0  0  0  0  0  0  0  0  0  0
   12.9332  -14.4274    0.0000 C    0  0  0  0  0  0  0  0  0  0  0  0
   11.1683  -12.9463    0.0000 C    0  0  0  0  0  0  0  0  0  0  0  0
   13.7935  -13.4073    0.0000 C    0  0  0  0  0  0  0  0  0  0  0  0
   12.0197  -11.9262    0.0000 C    0  0  0  0  0  0  0  0  0  0  0  0
   13.3326  -12.1564    0.0000 C    0  0  0  0  0  0  0  0  0  0  0  0
   13.9002   -7.7222    0.0000 C    0  0  0  0  0  0  0  0  0  0  0  0
   12.5873   -7.5004    0.0000 C    0  0  0  0  0  0  0  0  0  0  0  0
   14.3616   -8.9730    0.0000 C    0  0  0  0  0  0  0  0  0  0  0  0
   11.7359   -8.5295    0.0000 C    0  0  0  0  0  0  0  0  0  0  0  0
   13.5186   -9.9927    0.0000 C    0  0  0  0  0  0  0  0  0  0  0  0
   12.2058   -9.7714    0.0000 C    0  0  0  0  0  0  0  0  0  0  0  0
   17.8204  -10.6848    0.0000 C    0  0  0  0  0  0  0  0  0  0  0  0
   18.6718  -11.6866    0.0000 C    0  0  0  0  0  0  0  0  0  0  0  0
   18.2640   -9.4250    0.0000 C    0  0  0  0  0  0  0  0  0  0  0  0
   19.9847  -11.4653    0.0000 C    0  0  0  0  0  0  0  0  0  0  0  0
   19.5763   -9.1948    0.0000 C    0  0  0  0  0  0  0  0  0  0  0  0
   20.4367  -10.2060    0.0000 C    0  0  0  0  0  0  0  0  0  0  0  0
   18.1930   -6.2406    0.0000 C    0  0  0  0  0  0  0  0  0  0  0  0
   19.2042   -5.3892    0.0000 C    0  0  0  0  0  0  0  0  0  0  0  0
   18.4233   -7.5535    0.0000 C    0  0  0  0  0  0  0  0  0  0  0  0
   20.4546   -5.8328    0.0000 C    0  0  0  0  0  0  0  0  0  0  0  0
   19.6741   -8.0060    0.0000 C    0  0  0  0  0  0  0  0  0  0  0  0
   20.6942   -7.1456    0.0000 C    0  0  0  0  0  0  0  0  0  0  0  0
   16.5517   -7.3937    0.0000 C    0  0  0  0  0  0  0  0  0  0  0  0
   15.2389   -7.6334    0.0000 C    0  0  0  0  0  0  0  0  0  0  0  0
   17.0042   -6.1434    0.0000 C    0  0  0  0  0  0  0  0  0  0  0  0
   14.3879   -6.6133    0.0000 C    0  0  0  0  0  0  0  0  0  0  0  0
   16.1439   -5.1322    0.0000 C    0  0  0  0  0  0  0  0  0  0  0  0
   14.8310   -5.3629    0.0000 C    0  0  0  0  0  0  0  0  0  0  0  0
   21.3596  -14.4805    0.0000 C    0  0  0  0  0  0  0  0  0  0  0  0
   22.3797  -13.6201    0.0000 C    0  0  0  0  0  0  0  0  0  0  0  0
   20.1087  -14.0285    0.0000 C    0  0  0  0  0  0  0  0  0  0  0  0
   22.1400  -12.3162    0.0000 C    0  0  0  0  0  0  0  0  0  0  0  0
   19.8691  -12.7245    0.0000 C    0  0  0  0  0  0  0  0  0  0  0  0
   20.8892  -11.8642    0.0000 C    0  0  0  0  0  0  0  0  0  0  0  0
   18.0774  -15.7492    0.0000 C    0  0  0  0  0  0  0  0  0  0  0  0
   18.3081  -17.0620    0.0000 C    0  0  0  0  0  0  0  0  0  0  0  0
   16.8266  -15.2967    0.0000 C    0  0  0  0  0  0  0  0  0  0  0  0
   17.2970  -17.9135    0.0000 C    0  0  0  0  0  0  0  0  0  0  0  0
   15.8070  -16.1570    0.0000 C    0  0  0  0  0  0  0  0  0  0  0  0
   16.0461  -17.4699    0.0000 C    0  0  0  0  0  0  0  0  0  0  0  0
   19.4965  -17.1593    0.0000 C    0  0  0  0  0  0  0  0  0  0  0  0
   19.9490  -15.9089    0.0000 C    0  0  0  0  0  0  0  0  0  0  0  0
   20.3573  -18.1705    0.0000 C    0  0  0  0  0  0  0  0  0  0  0  0
   21.2618  -15.6693    0.0000 C    0  0  0  0  0  0  0  0  0  0  0  0
   21.6697  -17.9398    0.0000 C    0  0  0  0  0  0  0  0  0  0  0  0
   22.1222  -16.6894    0.0000 C    0  0  0  0  0  0  0  0  0  0  0  0
   10.8845  -11.7397    0.0000 F    0  0  0  0  0  0  0  0  0  0  0  0
    8.5426  -12.4938    0.0000 F    0  0  0  0  0  0  0  0  0  0  0  0
    6.5024  -10.7910    0.0000 F    0  0  0  0  0  0  0  0  0  0  0  0
    6.9638   -8.1747    0.0000 F    0  0  0  0  0  0  0  0  0  0  0  0
    9.4650   -7.2608    0.0000 F    0  0  0  0  0  0  0  0  0  0  0  0
  1  2  1  0  0  0  0
  1  3  2  0  0  0  0
  2  4  2  0  0  0  0
  3  5  1  0  0  0  0
  4  6  1  0  0  0  0
  5  6  2  0  0  0  0
  7  8  1  0  0  0  0
  7  9  1  0  0  0  0
  7 10  1  0  0  0  0
  7 11  1  0  0  0  0
 12 13  1  0  0  0  0
 12 14  2  0  0  0  0
 13 15  2  0  0  0  0
 14 16  1  0  0  0  0
 15 17  1  0  0  0  0
 16 17  2  0  0  0  0
  9 15  1  0  0  0  0
 18 19  1  0  0  0  0
 18 20  2  0  0  0  0
 19 21  2  0  0  0  0
 20 22  1  0  0  0  0
 21 23  1  0  0  0  0
 22 23  2  0  0  0  0
  9 23  1  0  0  0  0
 24 25  1  0  0  0  0
 24 26  2  0  0  0  0
 25 27  2  0  0  0  0
 26 28  1  0  0  0  0
 27 29  1  0  0  0  0
 28 29  2  0  0  0  0
  9 28  1  0  0  0  0
 30 31  1  0  0  0  0
 30 32  2  0  0  0  0
 31 33  2  0  0  0  0
 32 34  1  0  0  0  0
 33 35  1  0  0  0  0
 34 35  2  0  0  0  0
 10 32  1  0  0  0  0
 36 37  1  0  0  0  0
 36 38  2  0  0  0  0
 37 39  2  0  0  0  0
 38 40  1  0  0  0  0
 39 41  1  0  0  0  0
 40 41  2  0  0  0  0
 10 38  1  0  0  0  0
 42 43  1  0  0  0  0
 42 44  2  0  0  0  0
 43 45  2  0  0  0  0
 44 46  1  0  0  0  0
 45 47  1  0  0  0  0
 46 47  2  0  0  0  0
 10 42  1  0  0  0  0
 48 49  1  0  0  0  0
 48 50  2  0  0  0  0
 49 51  2  0  0  0  0
 50 52  1  0  0  0  0
 51 53  1  0  0  0  0
 52 53  2  0  0  0  0
 11 50  1  0  0  0  0
 54 55  1  0  0  0  0
 54 56  2  0  0  0  0
 55 57  2  0  0  0  0
 56 58  1  0  0  0  0
 57 59  1  0  0  0  0
 58 59  2  0  0  0  0
 11 54  1  0  0  0  0
 60 61  1  0  0  0  0
 60 62  2  0  0  0  0
 61 63  2  0  0  0  0
 62 64  1  0  0  0  0
 63 65  1  0  0  0  0
 64 65  2  0  0  0  0
 11 61  1  0  0  0  0
  2  8  1  0  0  0  0
  4 66  1  0  0  0  0
  6 67  1  0  0  0  0
  5 68  1  0  0  0  0
  3 69  1  0  0  0  0
  1 70  1  0  0  0  0
M  END
> <NMREDATA_VERSION>
1.1

> <NMREDATA_LEVEL>
0

> <NMREDATA_SOLVENT>
toluene-d8

> <NMREDATA_TEMPERATURE>
248

> <NMREDATA_FORMULA>
C60H48F5P3RhS

> <NMREDATA_SMILES>
Fc1c(S[Rh](P(c2ccccc2)(c2ccccc2)c2ccccc2)(P(c2ccccc2)(c2ccccc2)c2ccccc2)P(c2ccccc2)(c2ccccc2)c2ccccc2)c(F)c(c(c1F)F)F

> <NMREDATA_ASSIGNMENT>
Rh7, 17.00, 7

> <NMREDATA_1D_103Rh>
17.00, L=Rh7

$$$$

  ACD/LABS03152413082D

 55 61  0  0  0  0  0  0  0  0  1 V2000
   10.8514  -12.7165    0.0000 C    0  0  0  0  0  0  0  0  0  0  0  0
   11.8773  -11.8683    0.0000 C    0  0  0  0  0  0  0  0  0  0  0  0
    9.6073  -12.2471    0.0000 C    0  0  0  0  0  0  0  0  0  0  0  0
   11.6512  -10.5549    0.0000 C    0  0  0  0  0  0  0  0  0  0  0  0
    9.3816  -10.9335    0.0000 C    0  0  0  0  0  0  0  0  0  0  0  0
   10.4073  -10.0850    0.0000 C    0  0  0  0  0  0  0  0  0  0  0  0
   14.2806  -11.6685    0.0000 Rh   0  0  0  0  0  0  0  0  0  0  0  0
   13.1243  -12.3257    0.0000 S    0  0  0  0  0  0  0  0  0  0  0  0
   13.8242  -10.4163    0.0000 P    0  0  0  0  0  0  0  0  0  0  0  0
   14.7249  -12.9168    0.0000 P    0  0  0  0  0  0  0  0  0  0  0  0
   16.9907  -10.6871    0.0000 P    0  0  0  0  0  0  0  0  0  0  0  0
   17.2813   -9.7720    0.0000 C    0  0  0  0  0  0  0  0  0  0  0  0
   16.1250  -10.4293    0.0000 C    0  0  0  0  0  0  0  0  0  0  0  0
   17.2857   -8.4488    0.0000 C    0  0  0  0  0  0  0  0  0  0  0  0
   14.9728   -9.7635    0.0000 C    0  0  0  0  0  0  0  0  0  0  0  0
   16.1361   -7.7707    0.0000 C    0  0  0  0  0  0  0  0  0  0  0  0
   14.9843   -8.4357    0.0000 C    0  0  0  0  0  0  0  0  0  0  0  0
   13.7719   -6.9037    0.0000 C    0  0  0  0  0  0  0  0  0  0  0  0
   12.4660   -6.6640    0.0000 C    0  0  0  0  0  0  0  0  0  0  0  0
   14.2284   -8.1553    0.0000 C    0  0  0  0  0  0  0  0  0  0  0  0
   11.6177   -7.6762    0.0000 C    0  0  0  0  0  0  0  0  0  0  0  0
   13.3797   -9.1677    0.0000 C    0  0  0  0  0  0  0  0  0  0  0  0
   12.0663   -8.9328    0.0000 C    0  0  0  0  0  0  0  0  0  0  0  0
   12.4552  -13.2953    0.0000 C    0  0  0  0  0  0  0  0  0  0  0  0
   11.4293  -14.1435    0.0000 C    0  0  0  0  0  0  0  0  0  0  0  0
   13.6993  -13.7647    0.0000 C    0  0  0  0  0  0  0  0  0  0  0  0
   11.6476  -15.4613    0.0000 C    0  0  0  0  0  0  0  0  0  0  0  0
   13.9206  -15.0706    0.0000 C    0  0  0  0  0  0  0  0  0  0  0  0
   12.8948  -15.9190    0.0000 C    0  0  0  0  0  0  0  0  0  0  0  0
   15.3825  -14.0729    0.0000 C    0  0  0  0  0  0  0  0  0  0  0  0
   16.7054  -14.0774    0.0000 C    0  0  0  0  0  0  0  0  0  0  0  0
   14.7121  -15.2179    0.0000 C    0  0  0  0  0  0  0  0  0  0  0  0
   17.3627  -15.2337    0.0000 C    0  0  0  0  0  0  0  0  0  0  0  0
   15.3694  -16.3742    0.0000 C    0  0  0  0  0  0  0  0  0  0  0  0
   16.7051  -16.3816    0.0000 C    0  0  0  0  0  0  0  0  0  0  0  0
   19.2637  -11.0951    0.0000 C    0  0  0  0  0  0  0  0  0  0  0  0
   20.5157  -10.6384    0.0000 C    0  0  0  0  0  0  0  0  0  0  0  0
   18.2426  -10.2304    0.0000 C    0  0  0  0  0  0  0  0  0  0  0  0
   20.7476   -9.3369    0.0000 C    0  0  0  0  0  0  0  0  0  0  0  0
   18.4866   -8.9328    0.0000 C    0  0  0  0  0  0  0  0  0  0  0  0
   19.7386   -8.4761    0.0000 C    0  0  0  0  0  0  0  0  0  0  0  0
   17.6557  -11.8389    0.0000 C    0  0  0  0  0  0  0  0  0  0  0  0
   18.9834  -11.8510    0.0000 C    0  0  0  0  0  0  0  0  0  0  0  0
   16.9779  -12.9882    0.0000 C    0  0  0  0  0  0  0  0  0  0  0  0
   19.6410  -13.0071    0.0000 C    0  0  0  0  0  0  0  0  0  0  0  0
   17.6429  -14.1400    0.0000 C    0  0  0  0  0  0  0  0  0  0  0  0
   18.9706  -14.1521    0.0000 C    0  0  0  0  0  0  0  0  0  0  0  0
   12.6770   -9.7065    0.0000 F    0  0  0  0  0  0  0  0  0  0  0  0
   10.1857   -8.7794    0.0000 F    0  0  0  0  0  0  0  0  0  0  0  0
    8.1344  -10.4758    0.0000 F    0  0  0  0  0  0  0  0  0  0  0  0
    8.5814  -13.0952    0.0000 F    0  0  0  0  0  0  0  0  0  0  0  0
   10.6074  -14.0141    0.0000 F    0  0  0  0  0  0  0  0  0  0  0  0
   12.5800  -10.8686    0.0000 C    0  0  0  0  0  0  0  0  0  0  0  0
   15.8690  -12.2562    0.0000 C    0  0  0  0  0  0  0  0  0  0  0  0
   16.5464   -9.4388    0.0000 C    0  0  0  0  0  0  0  0  0  0  0  0
  1  2  1  0  0  0  0
  1  3  2  0  0  0  0
  2  4  2  0  0  0  0
  3  5  1  0  0  0  0
  4  6  1  0  0  0  0
  5  6  2  0  0  0  0
  7  8  1  0  0  0  0
  7  9  1  0  0  0  0
  7 10  1  0  0  0  0
  7 11  1  0  0  0  0
 12 13  1  0  0  0  0
 12 14  2  0  0  0  0
 13 15  2  0  0  0  0
 14 16  1  0  0  0  0
 15 17  1  0  0  0  0
 16 17  2  0  0  0  0
  9 15  1  0  0  0  0
 18 19  1  0  0  0  0
 18 20  2  0  0  0  0
 19 21  2  0  0  0  0
 20 22  1  0  0  0  0
 21 23  1  0  0  0  0
 22 23  2  0  0  0  0
  9 22  1  0  0  0  0
 24 25  1  0  0  0  0
 24 26  2  0  0  0  0
 25 27  2  0  0  0  0
 26 28  1  0  0  0  0
 27 29  1  0  0  0  0
 28 29  2  0  0  0  0
 10 26  1  0  0  0  0
 30 31  1  0  0  0  0
 30 32  2  0  0  0  0
 31 33  2  0  0  0  0
 32 34  1  0  0  0  0
 33 35  1  0  0  0  0
 34 35  2  0  0  0  0
 10 30  1  0  0  0  0
 36 37  1  0  0  0  0
 36 38  2  0  0  0  0
 37 39  2  0  0  0  0
 38 40  1  0  0  0  0
 39 41  1  0  0  0  0
 40 41  2  0  0  0  0
 11 38  1  0  0  0  0
 42 43  1  0  0  0  0
 42 44  2  0  0  0  0
 43 45  2  0  0  0  0
 44 46  1  0  0  0  0
 45 47  1  0  0  0  0
 46 47  2  0  0  0  0
 11 42  1  0  0  0  0
  2  8  1  0  0  0  0
  4 48  1  0  0  0  0
  6 49  1  0  0  0  0
  5 50  1  0  0  0  0
  3 51  1  0  0  0  0
  1 52  1  0  0  0  0
  9 53  1  0  0  0  0
 10 54  1  0  0  0  0
 11 55  1  0  0  0  0
M  END
> <NMREDATA_VERSION>
1.1

> <NMREDATA_LEVEL>
0

> <NMREDATA_SOLVENT>
toluene-d8

> <NMREDATA_TEMPERATURE>
248

> <NMREDATA_FORMULA>
C45H42F5P3RhS

> <NMREDATA_SMILES>
Fc1c(S[Rh](P(c2ccccc2)(c2ccccc2)C)(P(c2ccccc2)(c2ccccc2)C)P(c2ccccc2)(c2ccccc2)C)c(F)c(c(c1F)F)F

> <NMREDATA_ASSIGNMENT>
Rh7, -414.00, 7

> <NMREDATA_1D_103Rh>
-414.00, L=Rh7

$$$$

  ACD/LABS03152413182D

 22 22  0  0  0  0  0  0  0  0  1 V2000
   11.4572   -7.4993    0.0000 Rh   0  0  0  0  0  0  0  0  0  0  0  0
   12.7783   -7.4993    0.0000 Si   0  0  0  0  0  0  0  0  0  0  0  0
   12.7783   -6.1693    0.0000 C    0  0  0  0  0  0  0  0  0  0  0  0
   12.7783   -8.8203    0.0000 C    0  0  0  0  0  0  0  0  0  0  0  0
   16.7593   -7.4993    0.0000 C    0  0  0  0  0  0  0  0  0  0  0  0
   16.1033   -8.6430    0.0000 C    0  0  0  0  0  0  0  0  0  0  0  0
   16.0943   -6.3555    0.0000 C    0  0  0  0  0  0  0  0  0  0  0  0
   14.7733   -8.6430    0.0000 C    0  0  0  0  0  0  0  0  0  0  0  0
   14.7643   -6.3555    0.0000 C    0  0  0  0  0  0  0  0  0  0  0  0
   14.1083   -7.4993    0.0000 C    0  0  0  0  0  0  0  0  0  0  0  0
   11.4572  -10.3896    0.0000 P    0  0  0  0  0  0  0  0  0  0  0  0
   12.7783  -10.3896    0.0000 C    0  0  0  0  0  0  0  0  0  0  0  0
   10.1272  -10.3985    0.0000 C    0  0  0  0  0  0  0  0  0  0  0  0
   11.4572  -11.7198    0.0000 C    0  0  0  0  0  0  0  0  0  0  0  0
   11.4483   -4.6000    0.0000 P    0  0  0  0  0  0  0  0  0  0  0  0
   10.1272   -7.4993    0.0000 P    0  0  0  0  0  0  0  0  0  0  0  0
   12.7783   -4.6000    0.0000 C    0  0  0  0  0  0  0  0  0  0  0  0
   10.1183   -4.6090    0.0000 C    0  0  0  0  0  0  0  0  0  0  0  0
   11.4483   -3.2787    0.0000 C    0  0  0  0  0  0  0  0  0  0  0  0
   10.1272   -8.8293    0.0000 C    0  0  0  0  0  0  0  0  0  0  0  0
   10.1183   -6.1782    0.0000 C    0  0  0  0  0  0  0  0  0  0  0  0
    8.7972   -7.4993    0.0000 C    0  0  0  0  0  0  0  0  0  0  0  0
  1  2  1  0  0  0  0
  2  3  1  0  0  0  0
  2  4  1  0  0  0  0
  5  6  1  0  0  0  0
  5  7  2  0  0  0  0
  6  8  2  0  0  0  0
  7  9  1  0  0  0  0
  8 10  1  0  0  0  0
  9 10  2  0  0  0  0
  2 10  1  0  0  0  0
  1 11  1  0  0  0  0
 11 12  1  0  0  0  0
 11 13  1  0  0  0  0
 11 14  1  0  0  0  0
  1 15  1  0  0  0  0
  1 16  1  0  0  0  0
 15 17  1  0  0  0  0
 15 18  1  0  0  0  0
 15 19  1  0  0  0  0
 16 20  1  0  0  0  0
 16 21  1  0  0  0  0
 16 22  1  0  0  0  0
M  END
> <NMREDATA_VERSION>
1.1

> <NMREDATA_LEVEL>
0

> <NMREDATA_SOLVENT>
C6D6

> <NMREDATA_TEMPERATURE>
293

> <NMREDATA_FORMULA>
C17H41P3RhSi

> <NMREDATA_SMILES>
C[Si]([Rh](P(C)(C)C)(P(C)(C)C)P(C)(C)C)(c1ccccc1)C

> <NMREDATA_ASSIGNMENT>
Rh1, 802.00, 1

> <NMREDATA_1D_103Rh>
802.00, L=Rh1

$$$$

  ACD/LABS03152413192D

 32 34  0  0  0  0  0  0  0  0  1 V2000
   12.0336  -10.5258    0.0000 C    0  0  0  0  0  0  0  0  0  0  0  0
   12.6993  -11.6782    0.0000 C    0  0  0  0  0  0  0  0  0  0  0  0
   12.6988   -9.3737    0.0000 C    0  0  0  0  0  0  0  0  0  0  0  0
   14.0229  -11.6743    0.0000 C    0  0  0  0  0  0  0  0  0  0  0  0
   14.0253   -9.3815    0.0000 C    0  0  0  0  0  0  0  0  0  0  0  0
   14.6880  -10.5222    0.0000 C    0  0  0  0  0  0  0  0  0  0  0  0
   12.1868   -6.7844    0.0000 Rh   0  0  0  0  0  0  0  0  0  0  0  0
   14.6902   -8.2297    0.0000 Si   0  0  0  0  0  0  0  0  0  0  0  0
   18.1390  -10.2208    0.0000 C    0  0  0  0  0  0  0  0  0  0  0  0
   16.9985  -10.8833    0.0000 C    0  0  0  0  0  0  0  0  0  0  0  0
   18.1350   -8.8975    0.0000 C    0  0  0  0  0  0  0  0  0  0  0  0
   15.8464  -10.2182    0.0000 C    0  0  0  0  0  0  0  0  0  0  0  0
   16.9829   -8.2324    0.0000 C    0  0  0  0  0  0  0  0  0  0  0  0
   15.8423   -8.8949    0.0000 C    0  0  0  0  0  0  0  0  0  0  0  0
   11.5218   -7.9361    0.0000 P    0  0  0  0  0  0  0  0  0  0  0  0
   12.7660   -8.3884    0.0000 C    0  0  0  0  0  0  0  0  0  0  0  0
   10.3698   -7.2710    0.0000 C    0  0  0  0  0  0  0  0  0  0  0  0
   10.8567   -9.0882    0.0000 C    0  0  0  0  0  0  0  0  0  0  0  0
   12.8400   -5.6357    0.0000 P    0  0  0  0  0  0  0  0  0  0  0  0
    9.6753   -5.3343    0.0000 P    0  0  0  0  0  0  0  0  0  0  0  0
   13.8656   -6.4839    0.0000 C    0  0  0  0  0  0  0  0  0  0  0  0
   11.6879   -4.9706    0.0000 C    0  0  0  0  0  0  0  0  0  0  0  0
   13.5051   -4.4836    0.0000 C    0  0  0  0  0  0  0  0  0  0  0  0
    9.0103   -6.4861    0.0000 C    0  0  0  0  0  0  0  0  0  0  0  0
   10.3284   -4.1857    0.0000 C    0  0  0  0  0  0  0  0  0  0  0  0
    8.5232   -4.6692    0.0000 C    0  0  0  0  0  0  0  0  0  0  0  0
   16.6737   -4.7769    0.0000 C    0  0  0  0  0  0  0  0  0  0  0  0
   17.3397   -5.9294    0.0000 C    0  0  0  0  0  0  0  0  0  0  0  0
   15.3504   -4.7809    0.0000 C    0  0  0  0  0  0  0  0  0  0  0  0
   16.6788   -7.0740    0.0000 C    0  0  0  0  0  0  0  0  0  0  0  0
   14.6852   -5.9330    0.0000 C    0  0  0  0  0  0  0  0  0  0  0  0
   15.3477   -7.0736    0.0000 C    0  0  0  0  0  0  0  0  0  0  0  0
  1  2  1  0  0  0  0
  1  3  2  0  0  0  0
  2  4  2  0  0  0  0
  3  5  1  0  0  0  0
  4  6  1  0  0  0  0
  5  6  2  0  0  0  0
  7  8  1  0  0  0  0
  9 10  1  0  0  0  0
  9 11  2  0  0  0  0
 10 12  2  0  0  0  0
 11 13  1  0  0  0  0
 12 14  1  0  0  0  0
 13 14  2  0  0  0  0
  8 14  1  0  0  0  0
  7 15  1  0  0  0  0
 15 16  1  0  0  0  0
 15 17  1  0  0  0  0
 15 18  1  0  0  0  0
  7 19  1  0  0  0  0
  7 20  1  0  0  0  0
 19 21  1  0  0  0  0
 19 22  1  0  0  0  0
 19 23  1  0  0  0  0
 20 24  1  0  0  0  0
 20 25  1  0  0  0  0
 20 26  1  0  0  0  0
  5  8  1  0  0  0  0
 27 28  1  0  0  0  0
 27 29  2  0  0  0  0
 28 30  2  0  0  0  0
 29 31  1  0  0  0  0
 30 32  1  0  0  0  0
 31 32  2  0  0  0  0
  8 32  1  0  0  0  0
M  END
> <NMREDATA_VERSION>
1.1

> <NMREDATA_LEVEL>
0

> <NMREDATA_SOLVENT>
C6D6

> <NMREDATA_TEMPERATURE>
293

> <NMREDATA_FORMULA>
C27H45P3RhSi

> <NMREDATA_SMILES>
CP([Rh]([Si](c1ccccc1)(c1ccccc1)c1ccccc1)(P(C)(C)C)P(C)(C)C)(C)C

> <NMREDATA_ASSIGNMENT>
Rh7, 735.00, 7

> <NMREDATA_1D_103Rh>
735.00, L=Rh7

$$$$

  ACD/LABS03152413232D

 90100  0  0  0  0  0  0  0  0  2 V2000
   13.4131  -12.3320    0.0000 Rh   0  3  0  0  0  0  0  0  0  0  0  0
   14.6352  -11.6264    0.0000 P    0  0  0  0  0  0  0  0  0  0  0  0
   15.8492  -10.9154    0.0000 C    0  0  0  0  0  0  0  0  0  0  0  0
   17.0750  -11.6124    0.0000 C    0  0  0  0  0  0  0  0  0  0  0  0
   18.2887  -10.9019    0.0000 P    0  0  0  0  0  0  0  0  0  0  0  0
   15.3458  -12.8400    0.0000 C    0  0  0  0  0  0  0  0  0  0  0  0
   14.6536  -14.0573    0.0000 C    0  0  0  0  0  0  0  0  0  0  0  0
   16.7490  -12.8354    0.0000 C    0  0  0  0  0  0  0  0  0  0  0  0
   15.3600  -15.2793    0.0000 C    0  0  0  0  0  0  0  0  0  0  0  0
   17.4680  -14.0540    0.0000 C    0  0  0  0  0  0  0  0  0  0  0  0
   16.7755  -15.2718    0.0000 C    0  0  0  0  0  0  0  0  0  0  0  0
   13.9163  -10.4078    0.0000 C    0  0  0  0  0  0  0  0  0  0  0  0
   14.6216   -9.1861    0.0000 C    0  0  0  0  0  0  0  0  0  0  0  0
   12.5172  -10.4248    0.0000 C    0  0  0  0  0  0  0  0  0  0  0  0
   13.9116   -7.9727    0.0000 C    0  0  0  0  0  0  0  0  0  0  0  0
   11.8113   -9.2031    0.0000 C    0  0  0  0  0  0  0  0  0  0  0  0
   12.5083   -7.9773    0.0000 C    0  0  0  0  0  0  0  0  0  0  0  0
   18.2892   -9.4910    0.0000 C    0  0  0  0  0  0  0  0  0  0  0  0
   17.0629   -8.7936    0.0000 C    0  0  0  0  0  0  0  0  0  0  0  0
   19.5031   -8.7800    0.0000 C    0  0  0  0  0  0  0  0  0  0  0  0
   17.0508   -7.3861    0.0000 C    0  0  0  0  0  0  0  0  0  0  0  0
   19.4951   -7.3641    0.0000 C    0  0  0  0  0  0  0  0  0  0  0  0
   18.2694   -6.6671    0.0000 C    0  0  0  0  0  0  0  0  0  0  0  0
   19.5145  -11.5990    0.0000 C    0  0  0  0  0  0  0  0  0  0  0  0
   20.7369  -10.8929    0.0000 C    0  0  0  0  0  0  0  0  0  0  0  0
   19.5225  -13.0148    0.0000 C    0  0  0  0  0  0  0  0  0  0  0  0
   21.9627  -11.5899    0.0000 C    0  0  0  0  0  0  0  0  0  0  0  0
   20.7487  -13.7122    0.0000 C    0  0  0  0  0  0  0  0  0  0  0  0
   21.9668  -12.9929    0.0000 C    0  0  0  0  0  0  0  0  0  0  0  0
    9.2901   -7.5525    0.0000 C    0  0  0  0  0  0  0  0  0  0  0  0
   10.0094   -8.7706    0.0000 C    0  0  0  0  0  0  0  0  0  0  0  0
    9.7743   -6.2251    0.0000 As   0  0  0  0  0  0  0  0  0  0  0  0
   11.1584   -5.9711    0.0000 C    0  0  0  0  0  0  0  0  0  0  0  0
   12.0671   -7.0490    0.0000 C    0  0  0  0  0  0  0  0  0  0  0  0
   11.6379   -4.6517    0.0000 C    0  0  0  0  0  0  0  0  0  0  0  0
   13.4597   -6.7999    0.0000 C    0  0  0  0  0  0  0  0  0  0  0  0
   13.0220   -4.3977    0.0000 C    0  0  0  0  0  0  0  0  0  0  0  0
   13.9305   -5.4761    0.0000 C    0  0  0  0  0  0  0  0  0  0  0  0
    8.8658   -5.1467    0.0000 C    0  0  0  0  0  0  0  0  0  0  0  0
    9.3373   -3.8227    0.0000 C    0  0  0  0  0  0  0  0  0  0  0  0
    7.4737   -5.3961    0.0000 C    0  0  0  0  0  0  0  0  0  0  0  0
    8.4286   -2.7449    0.0000 C    0  0  0  0  0  0  0  0  0  0  0  0
    6.5652   -4.3178    0.0000 C    0  0  0  0  0  0  0  0  0  0  0  0
    7.0360   -2.9939    0.0000 C    0  0  0  0  0  0  0  0  0  0  0  0
    9.3041   -9.9923    0.0000 P    0  0  0  0  0  0  0  0  0  0  0  0
    9.3224  -12.4232    0.0000 C    0  0  0  0  0  0  0  0  0  0  0  0
    8.6119  -11.2096    0.0000 C    0  0  0  0  0  0  0  0  0  0  0  0
    8.6251  -13.6495    0.0000 C    0  0  0  0  0  0  0  0  0  0  0  0
    7.2041  -11.2222    0.0000 C    0  0  0  0  0  0  0  0  0  0  0  0
    7.2175  -13.6616    0.0000 C    0  0  0  0  0  0  0  0  0  0  0  0
    6.4990  -12.4433    0.0000 C    0  0  0  0  0  0  0  0  0  0  0  0
    5.6300   -7.8930    0.0000 C    0  0  0  0  0  0  0  0  0  0  0  0
    5.6429   -9.3004    0.0000 C    0  0  0  0  0  0  0  0  0  0  0  0
    6.8520   -7.1866    0.0000 C    0  0  0  0  0  0  0  0  0  0  0  0
    6.8690   -9.9969    0.0000 C    0  0  0  0  0  0  0  0  0  0  0  0
    8.0783   -7.8840    0.0000 C    0  0  0  0  0  0  0  0  0  0  0  0
    8.0778   -9.2949    0.0000 C    0  0  0  0  0  0  0  0  0  0  0  0
   14.6827  -17.5050    0.0000 C    0  0  0  0  0  0  0  0  0  0  0  0
   14.6621  -16.0926    0.0000 C    0  0  0  0  0  0  0  0  0  0  0  0
   15.7703  -18.4045    0.0000 As   0  0  0  0  0  0  0  0  0  0  0  0
   17.0939  -17.8980    0.0000 C    0  0  0  0  0  0  0  0  0  0  0  0
   17.3206  -16.5091    0.0000 C    0  0  0  0  0  0  0  0  0  0  0  0
   18.1815  -18.7975    0.0000 C    0  0  0  0  0  0  0  0  0  0  0  0
   18.6393  -16.0110    0.0000 C    0  0  0  0  0  0  0  0  0  0  0  0
   19.5007  -18.2997    0.0000 C    0  0  0  0  0  0  0  0  0  0  0  0
   19.7318  -16.9021    0.0000 C    0  0  0  0  0  0  0  0  0  0  0  0
   15.5436  -19.7934    0.0000 C    0  0  0  0  0  0  0  0  0  0  0  0
   16.6361  -20.6844    0.0000 C    0  0  0  0  0  0  0  0  0  0  0  0
   14.2249  -20.2915    0.0000 C    0  0  0  0  0  0  0  0  0  0  0  0
   16.4091  -22.0738    0.0000 C    0  0  0  0  0  0  0  0  0  0  0  0
   13.9982  -21.6803    0.0000 C    0  0  0  0  0  0  0  0  0  0  0  0
   15.0858  -22.5798    0.0000 C    0  0  0  0  0  0  0  0  0  0  0  0
   13.4317  -15.4035    0.0000 P    0  0  0  0  0  0  0  0  0  0  0  0
   12.1930  -13.2991    0.0000 C    0  0  0  0  0  0  0  0  0  0  0  0
   12.2052  -14.7066    0.0000 C    0  0  0  0  0  0  0  0  0  0  0  0
   10.9706  -12.6146    0.0000 C    0  0  0  0  0  0  0  0  0  0  0  0
   10.9949  -15.4298    0.0000 C    0  0  0  0  0  0  0  0  0  0  0  0
    9.7521  -13.3336    0.0000 C    0  0  0  0  0  0  0  0  0  0  0  0
    9.7727  -14.7461    0.0000 C    0  0  0  0  0  0  0  0  0  0  0  0
   11.3565  -19.0914    0.0000 C    0  0  0  0  0  0  0  0  0  0  0  0
   10.6380  -17.8731    0.0000 C    0  0  0  0  0  0  0  0  0  0  0  0
   12.7689  -19.0708    0.0000 C    0  0  0  0  0  0  0  0  0  0  0  0
   11.3348  -16.6465    0.0000 C    0  0  0  0  0  0  0  0  0  0  0  0
   13.4660  -17.8450    0.0000 C    0  0  0  0  0  0  0  0  0  0  0  0
   12.7424  -16.6344    0.0000 C    0  0  0  0  0  0  0  0  0  0  0  0
   27.8980   -7.7156    0.0000 Cl   0  0  0  0  0  0  0  0  0  0  0  0
   28.6351   -6.4389    0.0000 O    0  0  0  0  0  0  0  0  0  0  0  0
   26.6213   -6.9785    0.0000 O    0  0  0  0  0  0  0  0  0  0  0  0
   29.1747   -8.4527    0.0000 O    0  0  0  0  0  0  0  0  0  0  0  0
   27.1609   -8.9923    0.0000 O    0  5  0  0  0  0  0  0  0  0  0  0
  2  3  1  0  0  0  0
  3  4  1  0  0  0  0
  4  5  1  0  0  0  0
  6  7  1  0  0  0  0
  6  8  2  0  0  0  0
  7  9  2  0  0  0  0
  8 10  1  0  0  0  0
  9 11  1  0  0  0  0
 10 11  2  0  0  0  0
  2  6  1  0  0  0  0
 12 13  1  0  0  0  0
 12 14  2  0  0  0  0
 13 15  2  0  0  0  0
 14 16  1  0  0  0  0
 15 17  1  0  0  0  0
 16 17  2  0  0  0  0
  2 12  1  0  0  0  0
 18 19  1  0  0  0  0
 18 20  2  0  0  0  0
 19 21  2  0  0  0  0
 20 22  1  0  0  0  0
 21 23  1  0  0  0  0
 22 23  2  0  0  0  0
  5 18  1  0  0  0  0
 24 25  1  0  0  0  0
 24 26  2  0  0  0  0
 25 27  2  0  0  0  0
 26 28  1  0  0  0  0
 27 29  1  0  0  0  0
 28 29  2  0  0  0  0
  5 24  1  0  0  0  0
  1  2  1  0  0  0  0
 30 31  2  0  0  0  0
 30 32  1  0  0  0  0
 33 34  1  0  0  0  0
 33 35  2  0  0  0  0
 34 36  2  0  0  0  0
 35 37  1  0  0  0  0
 36 38  1  0  0  0  0
 37 38  2  0  0  0  0
 32 33  1  0  0  0  0
 39 40  1  0  0  0  0
 39 41  2  0  0  0  0
 40 42  2  0  0  0  0
 41 43  1  0  0  0  0
 42 44  1  0  0  0  0
 43 44  2  0  0  0  0
 32 39  1  0  0  0  0
 31 45  1  0  0  0  0
 46 47  1  0  0  0  0
 46 48  2  0  0  0  0
 47 49  2  0  0  0  0
 48 50  1  0  0  0  0
 49 51  1  0  0  0  0
 50 51  2  0  0  0  0
 45 47  1  0  0  0  0
 52 53  1  0  0  0  0
 52 54  2  0  0  0  0
 53 55  2  0  0  0  0
 54 56  1  0  0  0  0
 55 57  1  0  0  0  0
 56 57  2  0  0  0  0
 45 57  1  0  0  0  0
  1 45  1  0  0  0  0
 58 59  2  0  0  0  0
 58 60  1  0  0  0  0
 61 62  1  0  0  0  0
 61 63  2  0  0  0  0
 62 64  2  0  0  0  0
 63 65  1  0  0  0  0
 64 66  1  0  0  0  0
 65 66  2  0  0  0  0
 60 61  1  0  0  0  0
 67 68  1  0  0  0  0
 67 69  2  0  0  0  0
 68 70  2  0  0  0  0
 69 71  1  0  0  0  0
 70 72  1  0  0  0  0
 71 72  2  0  0  0  0
 60 67  1  0  0  0  0
 59 73  1  0  0  0  0
 74 75  1  0  0  0  0
 74 76  2  0  0  0  0
 75 77  2  0  0  0  0
 76 78  1  0  0  0  0
 77 79  1  0  0  0  0
 78 79  2  0  0  0  0
 73 75  1  0  0  0  0
 80 81  1  0  0  0  0
 80 82  2  0  0  0  0
 81 83  2  0  0  0  0
 82 84  1  0  0  0  0
 83 85  1  0  0  0  0
 84 85  2  0  0  0  0
 73 85  1  0  0  0  0
  1 73  1  0  0  0  0
 86 87  2  0  0  0  0
 86 88  2  0  0  0  0
 86 89  2  0  0  0  0
 86 90  1  0  0  0  0
M  END
> <NMREDATA_VERSION>
1.1

> <NMREDATA_LEVEL>
0

> <NMREDATA_SOLVENT>
CD2Cl2

> <NMREDATA_TEMPERATURE>
298

> <NMREDATA_FORMULA>
C78H72As2ClO4P4Rh

> <NMREDATA_SMILES>
c1ccc(cc1)P(c1ccccc1)CCP([Rh](P(c1ccccc1)(c1ccccc1)/C=C/[As](c1ccccc1)c1ccccc1)P(c1ccccc1)(c1ccccc1)/C=C/[As](c1ccccc1)c1ccccc1)(c1ccccc1)c1ccccc1.O[Cl](=O)(=O)=O

> <NMREDATA_ASSIGNMENT>
Rh1, 1187.00, 1

> <NMREDATA_1D_103Rh>
1187.00, L=Rh1

$$$$

  ACD/LABS03152413252D

 62 68  0  0  0  0  0  0  0  0  2 V2000
   27.8980   -7.7156    0.0000 Cl   0  0  0  0  0  0  0  0  0  0  0  0
   28.6351   -6.4389    0.0000 O    0  0  0  0  0  0  0  0  0  0  0  0
   26.6213   -6.9785    0.0000 O    0  0  0  0  0  0  0  0  0  0  0  0
   29.1747   -8.4527    0.0000 O    0  0  0  0  0  0  0  0  0  0  0  0
   27.1609   -8.9923    0.0000 O    0  5  0  0  0  0  0  0  0  0  0  0
   13.7477  -10.5188    0.0000 Rh   0  3  0  0  0  0  0  0  0  0  0  0
   11.1606  -12.5613    0.0000 C    0  0  0  0  0  0  0  0  0  0  0  0
   11.8159  -11.4406    0.0000 C    0  0  0  0  0  0  0  0  0  0  0  0
   10.9778  -14.0273    0.0000 As   0  0  0  0  0  0  0  0  0  0  0  0
   12.3909  -14.7970    0.0000 C    0  0  0  0  0  0  0  0  0  0  0  0
   13.0096  -15.9762    0.0000 C    0  0  0  0  0  0  0  0  0  0  0  0
   13.6985  -14.0421    0.0000 C    0  0  0  0  0  0  0  0  0  0  0  0
   14.0051  -17.0047    0.0000 C    0  0  0  0  0  0  0  0  0  0  0  0
   14.7954  -14.8889    0.0000 C    0  0  0  0  0  0  0  0  0  0  0  0
   15.2659  -16.2462    0.0000 C    0  0  0  0  0  0  0  0  0  0  0  0
    9.7781  -15.2401    0.0000 C    0  0  0  0  0  0  0  0  0  0  0  0
    9.3391  -16.5385    0.0000 C    0  0  0  0  0  0  0  0  0  0  0  0
    8.3793  -15.2009    0.0000 C    0  0  0  0  0  0  0  0  0  0  0  0
    8.3457  -17.5348    0.0000 C    0  0  0  0  0  0  0  0  0  0  0  0
    7.0540  -15.5990    0.0000 C    0  0  0  0  0  0  0  0  0  0  0  0
    6.9149  -17.1072    0.0000 C    0  0  0  0  0  0  0  0  0  0  0  0
   12.3387  -10.1472    0.0000 P    0  0  0  0  0  0  0  0  0  0  0  0
   13.8703   -7.9441    0.0000 C    0  0  0  0  0  0  0  0  0  0  0  0
   12.6338   -8.6738    0.0000 C    0  0  0  0  0  0  0  0  0  0  0  0
   13.9437   -6.5020    0.0000 C    0  0  0  0  0  0  0  0  0  0  0  0
   11.5821   -7.7318    0.0000 C    0  0  0  0  0  0  0  0  0  0  0  0
   12.7862   -5.6328    0.0000 C    0  0  0  0  0  0  0  0  0  0  0  0
   11.4995   -6.3241    0.0000 C    0  0  0  0  0  0  0  0  0  0  0  0
    7.6776   -9.1094    0.0000 C    0  0  0  0  0  0  0  0  0  0  0  0
    8.7595   -8.0309    0.0000 C    0  0  0  0  0  0  0  0  0  0  0  0
    8.4096  -10.2818    0.0000 C    0  0  0  0  0  0  0  0  0  0  0  0
   10.0807   -8.5083    0.0000 C    0  0  0  0  0  0  0  0  0  0  0  0
    9.7936  -10.5370    0.0000 C    0  0  0  0  0  0  0  0  0  0  0  0
   10.8829   -9.6712    0.0000 C    0  0  0  0  0  0  0  0  0  0  0  0
   12.4015  -13.4147    0.0000 C    0  0  0  0  0  0  0  0  0  0  0  0
   13.3978  -12.5310    0.0000 C    0  0  0  0  0  0  0  0  0  0  0  0
   11.3061  -14.6985    0.0000 As   0  0  0  0  0  0  0  0  0  0  0  0
   11.3179  -16.2962    0.0000 C    0  0  0  0  0  0  0  0  0  0  0  0
   10.5283  -17.4698    0.0000 C    0  0  0  0  0  0  0  0  0  0  0  0
   12.2574  -17.3516    0.0000 C    0  0  0  0  0  0  0  0  0  0  0  0
   10.3550  -18.8434    0.0000 C    0  0  0  0  0  0  0  0  0  0  0  0
   12.6945  -18.6643    0.0000 C    0  0  0  0  0  0  0  0  0  0  0  0
   11.5931  -19.6919    0.0000 C    0  0  0  0  0  0  0  0  0  0  0  0
    9.8254  -13.8189    0.0000 C    0  0  0  0  0  0  0  0  0  0  0  0
    9.5823  -12.4106    0.0000 C    0  0  0  0  0  0  0  0  0  0  0  0
    8.4881  -13.7970    0.0000 C    0  0  0  0  0  0  0  0  0  0  0  0
    8.3709  -11.7748    0.0000 C    0  0  0  0  0  0  0  0  0  0  0  0
    7.0728  -13.5932    0.0000 C    0  0  0  0  0  0  0  0  0  0  0  0
    6.9432  -12.0789    0.0000 C    0  0  0  0  0  0  0  0  0  0  0  0
   14.6182  -11.6974    0.0000 P    0  0  0  0  0  0  0  0  0  0  0  0
   17.1253  -11.0011    0.0000 C    0  0  0  0  0  0  0  0  0  0  0  0
   15.7619  -10.6477    0.0000 C    0  0  0  0  0  0  0  0  0  0  0  0
   18.4024  -10.4444    0.0000 C    0  0  0  0  0  0  0  0  0  0  0  0
   15.8444   -9.2051    0.0000 C    0  0  0  0  0  0  0  0  0  0  0  0
   18.3985   -8.9519    0.0000 C    0  0  0  0  0  0  0  0  0  0  0  0
   17.0275   -8.4094    0.0000 C    0  0  0  0  0  0  0  0  0  0  0  0
   18.1948  -14.9956    0.0000 C    0  0  0  0  0  0  0  0  0  0  0  0
   18.4469  -13.4996    0.0000 C    0  0  0  0  0  0  0  0  0  0  0  0
   16.7613  -15.0914    0.0000 C    0  0  0  0  0  0  0  0  0  0  0  0
   17.3356  -12.6412    0.0000 C    0  0  0  0  0  0  0  0  0  0  0  0
   15.9595  -13.9353    0.0000 C    0  0  0  0  0  0  0  0  0  0  0  0
   15.8861  -12.5955    0.0000 C    0  0  0  0  0  0  0  0  0  0  0  0
  1  2  2  0  0  0  0
  1  3  2  0  0  0  0
  1  4  2  0  0  0  0
  1  5  1  0  0  0  0
  7  8  1  0  0  0  0
  7  9  1  0  0  0  0
 10 11  1  0  0  0  0
 10 12  2  0  0  0  0
 11 13  2  0  0  0  0
 12 14  1  0  0  0  0
 13 15  1  0  0  0  0
 14 15  2  0  0  0  0
  9 10  1  0  0  0  0
 16 17  1  0  0  0  0
 16 18  2  0  0  0  0
 17 19  2  0  0  0  0
 18 20  1  0  0  0  0
 19 21  1  0  0  0  0
 20 21  2  0  0  0  0
  9 16  1  0  0  0  0
  8 22  1  0  0  0  0
 23 24  1  0  0  0  0
 23 25  2  0  0  0  0
 24 26  2  0  0  0  0
 25 27  1  0  0  0  0
 26 28  1  0  0  0  0
 27 28  2  0  0  0  0
 22 24  1  0  0  0  0
 29 30  1  0  0  0  0
 29 31  2  0  0  0  0
 30 32  2  0  0  0  0
 31 33  1  0  0  0  0
 32 34  1  0  0  0  0
 33 34  2  0  0  0  0
 22 34  1  0  0  0  0
  6 22  1  0  0  0  0
 35 36  1  0  0  0  0
 35 37  1  0  0  0  0
 38 39  1  0  0  0  0
 38 40  2  0  0  0  0
 39 41  2  0  0  0  0
 40 42  1  0  0  0  0
 41 43  1  0  0  0  0
 42 43  2  0  0  0  0
 37 38  1  0  0  0  0
 44 45  1  0  0  0  0
 44 46  2  0  0  0  0
 45 47  2  0  0  0  0
 46 48  1  0  0  0  0
 47 49  1  0  0  0  0
 48 49  2  0  0  0  0
 37 44  1  0  0  0  0
 36 50  1  0  0  0  0
 51 52  1  0  0  0  0
 51 53  2  0  0  0  0
 52 54  2  0  0  0  0
 53 55  1  0  0  0  0
 54 56  1  0  0  0  0
 55 56  2  0  0  0  0
 50 52  1  0  0  0  0
 57 58  1  0  0  0  0
 57 59  2  0  0  0  0
 58 60  2  0  0  0  0
 59 61  1  0  0  0  0
 60 62  1  0  0  0  0
 61 62  2  0  0  0  0
 50 62  1  0  0  0  0
  6 50  1  0  0  0  0
M  END
> <NMREDATA_VERSION>
1.1

> <NMREDATA_LEVEL>
0

> <NMREDATA_SOLVENT>
CD2Cl2

> <NMREDATA_TEMPERATURE>
298

> <NMREDATA_FORMULA>
C52H51As2ClO4P2Rh

> <NMREDATA_SMILES>
c1ccc(cc1)P(c1ccccc1)([Rh]P(c1ccccc1)(c1ccccc1)CC[As](c1ccccc1)c1ccccc1)CC[As](c1ccccc1)c1ccccc1.O[Cl](=O)(=O)=O

> <NMREDATA_ASSIGNMENT>
Rh6, 1224.00, 6

> <NMREDATA_1D_103Rh>
1224.00, L=Rh6

$$$$

  ACD/LABS03152413262D

 62 68  0  0  0  0  0  0  0  0  2 V2000
   27.8980   -7.7156    0.0000 Cl   0  0  0  0  0  0  0  0  0  0  0  0
   28.6351   -6.4389    0.0000 O    0  0  0  0  0  0  0  0  0  0  0  0
   26.6213   -6.9785    0.0000 O    0  0  0  0  0  0  0  0  0  0  0  0
   29.1747   -8.4527    0.0000 O    0  0  0  0  0  0  0  0  0  0  0  0
   27.1609   -8.9923    0.0000 O    0  5  0  0  0  0  0  0  0  0  0  0
   13.2450  -11.8535    0.0000 Rh   0  3  0  0  0  0  0  0  0  0  0  0
   10.9130   -8.9473    0.0000 C    0  0  0  0  0  0  0  0  0  0  0  0
   12.3051   -9.1920    0.0000 C    0  0  0  0  0  0  0  0  0  0  0  0
   10.4331   -7.6213    0.0000 As   0  0  0  0  0  0  0  0  0  0  0  0
   11.3459   -6.5395    0.0000 C    0  0  0  0  0  0  0  0  0  0  0  0
   12.7279   -6.7939    0.0000 C    0  0  0  0  0  0  0  0  0  0  0  0
   10.8661   -5.2136    0.0000 C    0  0  0  0  0  0  0  0  0  0  0  0
   13.6401   -5.7121    0.0000 C    0  0  0  0  0  0  0  0  0  0  0  0
   11.7783   -4.1323    0.0000 C    0  0  0  0  0  0  0  0  0  0  0  0
   13.1602   -4.3861    0.0000 C    0  0  0  0  0  0  0  0  0  0  0  0
    9.0507   -7.3675    0.0000 C    0  0  0  0  0  0  0  0  0  0  0  0
    8.1384   -8.4493    0.0000 C    0  0  0  0  0  0  0  0  0  0  0  0
    8.5713   -6.0416    0.0000 C    0  0  0  0  0  0  0  0  0  0  0  0
    6.7463   -8.1950    0.0000 C    0  0  0  0  0  0  0  0  0  0  0  0
    7.1793   -5.7873    0.0000 C    0  0  0  0  0  0  0  0  0  0  0  0
    6.2670   -6.8690    0.0000 C    0  0  0  0  0  0  0  0  0  0  0  0
   12.7748  -10.5276    0.0000 P    0  0  0  0  0  0  0  0  0  0  0  0
   10.3772  -10.0952    0.0000 C    0  0  0  0  0  0  0  0  0  0  0  0
   11.4493  -10.9978    0.0000 C    0  0  0  0  0  0  0  0  0  0  0  0
    9.0507  -10.5654    0.0000 C    0  0  0  0  0  0  0  0  0  0  0  0
   11.2046  -12.3899    0.0000 C    0  0  0  0  0  0  0  0  0  0  0  0
    8.7969  -11.9570    0.0000 C    0  0  0  0  0  0  0  0  0  0  0  0
    9.8786  -12.8596    0.0000 C    0  0  0  0  0  0  0  0  0  0  0  0
   16.7532   -9.0886    0.0000 C    0  0  0  0  0  0  0  0  0  0  0  0
   16.4994  -10.4807    0.0000 C    0  0  0  0  0  0  0  0  0  0  0  0
   15.6714   -8.1763    0.0000 C    0  0  0  0  0  0  0  0  0  0  0  0
   15.1729  -10.9605    0.0000 C    0  0  0  0  0  0  0  0  0  0  0  0
   14.3455   -8.6562    0.0000 C    0  0  0  0  0  0  0  0  0  0  0  0
   14.1007  -10.0477    0.0000 C    0  0  0  0  0  0  0  0  0  0  0  0
   14.7779  -16.1140    0.0000 C    0  0  0  0  0  0  0  0  0  0  0  0
   14.5337  -14.7219    0.0000 C    0  0  0  0  0  0  0  0  0  0  0  0
   13.7057  -17.0263    0.0000 As   0  0  0  0  0  0  0  0  0  0  0  0
   12.3898  -16.5464    0.0000 C    0  0  0  0  0  0  0  0  0  0  0  0
   12.1355  -15.1543    0.0000 C    0  0  0  0  0  0  0  0  0  0  0  0
   11.3081  -17.4587    0.0000 C    0  0  0  0  0  0  0  0  0  0  0  0
   10.8095  -14.6750    0.0000 C    0  0  0  0  0  0  0  0  0  0  0  0
    9.9821  -16.9793    0.0000 C    0  0  0  0  0  0  0  0  0  0  0  0
    9.7278  -15.5873    0.0000 C    0  0  0  0  0  0  0  0  0  0  0  0
   13.9504  -18.4087    0.0000 C    0  0  0  0  0  0  0  0  0  0  0  0
   12.8782  -19.3210    0.0000 C    0  0  0  0  0  0  0  0  0  0  0  0
   15.2764  -18.8886    0.0000 C    0  0  0  0  0  0  0  0  0  0  0  0
   13.1229  -20.7131    0.0000 C    0  0  0  0  0  0  0  0  0  0  0  0
   15.5307  -20.2801    0.0000 C    0  0  0  0  0  0  0  0  0  0  0  0
   14.4489  -21.1924    0.0000 C    0  0  0  0  0  0  0  0  0  0  0  0
   15.6059  -13.8097    0.0000 P    0  0  0  0  0  0  0  0  0  0  0  0
   17.9102  -14.6372    0.0000 C    0  0  0  0  0  0  0  0  0  0  0  0
   16.5181  -14.8910    0.0000 C    0  0  0  0  0  0  0  0  0  0  0  0
   18.8224  -15.7190    0.0000 C    0  0  0  0  0  0  0  0  0  0  0  0
   16.0382  -16.2175    0.0000 C    0  0  0  0  0  0  0  0  0  0  0  0
   18.3426  -17.0449    0.0000 C    0  0  0  0  0  0  0  0  0  0  0  0
   16.9505  -17.2987    0.0000 C    0  0  0  0  0  0  0  0  0  0  0  0
   18.8411  -11.0922    0.0000 C    0  0  0  0  0  0  0  0  0  0  0  0
   17.5151  -10.6124    0.0000 C    0  0  0  0  0  0  0  0  0  0  0  0
   19.0948  -12.4837    0.0000 C    0  0  0  0  0  0  0  0  0  0  0  0
   16.4333  -11.5246    0.0000 C    0  0  0  0  0  0  0  0  0  0  0  0
   18.0136  -13.3768    0.0000 C    0  0  0  0  0  0  0  0  0  0  0  0
   16.6871  -12.9065    0.0000 C    0  0  0  0  0  0  0  0  0  0  0  0
  1  2  2  0  0  0  0
  1  3  2  0  0  0  0
  1  4  2  0  0  0  0
  1  5  1  0  0  0  0
  7  8  1  0  0  0  0
  7  9  1  0  0  0  0
 10 11  1  0  0  0  0
 10 12  2  0  0  0  0
 11 13  2  0  0  0  0
 12 14  1  0  0  0  0
 13 15  1  0  0  0  0
 14 15  2  0  0  0  0
  9 10  1  0  0  0  0
 16 17  1  0  0  0  0
 16 18  2  0  0  0  0
 17 19  2  0  0  0  0
 18 20  1  0  0  0  0
 19 21  1  0  0  0  0
 20 21  2  0  0  0  0
  9 16  1  0  0  0  0
  8 22  1  0  0  0  0
 23 24  1  0  0  0  0
 23 25  2  0  0  0  0
 24 26  2  0  0  0  0
 25 27  1  0  0  0  0
 26 28  1  0  0  0  0
 27 28  2  0  0  0  0
 22 24  1  0  0  0  0
 29 30  1  0  0  0  0
 29 31  2  0  0  0  0
 30 32  2  0  0  0  0
 31 33  1  0  0  0  0
 32 34  1  0  0  0  0
 33 34  2  0  0  0  0
 22 34  1  0  0  0  0
  6 22  1  0  0  0  0
 35 36  1  0  0  0  0
 35 37  1  0  0  0  0
 38 39  1  0  0  0  0
 38 40  2  0  0  0  0
 39 41  2  0  0  0  0
 40 42  1  0  0  0  0
 41 43  1  0  0  0  0
 42 43  2  0  0  0  0
 37 38  1  0  0  0  0
 44 45  1  0  0  0  0
 44 46  2  0  0  0  0
 45 47  2  0  0  0  0
 46 48  1  0  0  0  0
 47 49  1  0  0  0  0
 48 49  2  0  0  0  0
 37 44  1  0  0  0  0
 36 50  1  0  0  0  0
 51 52  1  0  0  0  0
 51 53  2  0  0  0  0
 52 54  2  0  0  0  0
 53 55  1  0  0  0  0
 54 56  1  0  0  0  0
 55 56  2  0  0  0  0
 50 52  1  0  0  0  0
 57 58  1  0  0  0  0
 57 59  2  0  0  0  0
 58 60  2  0  0  0  0
 59 61  1  0  0  0  0
 60 62  1  0  0  0  0
 61 62  2  0  0  0  0
 50 62  1  0  0  0  0
  6 50  1  0  0  0  0
M  END
> <NMREDATA_VERSION>
1.1

> <NMREDATA_LEVEL>
0

> <NMREDATA_SOLVENT>
CD2Cl2

> <NMREDATA_TEMPERATURE>
298

> <NMREDATA_FORMULA>
C52H51As2ClO4P2Rh

> <NMREDATA_SMILES>
c1ccc(cc1)P(c1ccccc1)([Rh]P(c1ccccc1)(c1ccccc1)CC[As](c1ccccc1)c1ccccc1)CC[As](c1ccccc1)c1ccccc1.O[Cl](=O)(=O)=O

> <NMREDATA_ASSIGNMENT>
Rh6, 1199.00, 6

> <NMREDATA_1D_103Rh>
1199.00, L=Rh6

$$$$

  ACD/LABS03212412312D

 44 48  0  0  0  0  0  0  0  0  1 V2000
    9.7813   -6.8080    0.0000 P    0  0  0  0  0  0  0  0  0  0  0  0
    8.6285  -10.1233    0.0000 C    0  0  0  0  0  0  0  0  0  0  0  0
    8.6285   -8.7937    0.0000 C    0  0  0  0  0  0  0  0  0  0  0  0
    9.7813  -10.7881    0.0000 C    0  0  0  0  0  0  0  0  0  0  0  0
    9.7813   -8.1289    0.0000 C    0  0  0  0  0  0  0  0  0  0  0  0
   10.9336  -10.1233    0.0000 C    0  0  0  0  0  0  0  0  0  0  0  0
   10.9336   -8.7937    0.0000 C    0  0  0  0  0  0  0  0  0  0  0  0
    8.6285   -4.8136    0.0000 C    0  0  0  0  0  0  0  0  0  0  0  0
    8.6285   -3.4836    0.0000 C    0  0  0  0  0  0  0  0  0  0  0  0
    9.7813   -5.4784    0.0000 C    0  0  0  0  0  0  0  0  0  0  0  0
    9.7813   -2.8188    0.0000 C    0  0  0  0  0  0  0  0  0  0  0  0
   10.9336   -4.8136    0.0000 C    0  0  0  0  0  0  0  0  0  0  0  0
   10.9336   -3.4836    0.0000 C    0  0  0  0  0  0  0  0  0  0  0  0
    8.4513   -6.8080    0.0000 C    0  0  0  0  0  0  0  0  0  0  0  0
    7.7865   -5.6557    0.0000 C    0  0  0  0  0  0  0  0  0  0  0  0
    6.4568   -5.6557    0.0000 O    0  0  0  0  0  0  0  0  0  0  0  0
    5.7917   -4.5033    0.0000 C    0  0  0  0  0  0  0  0  0  0  0  0
   12.6708   -6.7993    0.0000 Rh   0  0  0  0  0  0  0  0  0  0  0  0
   12.6708   -5.4696    0.0000 Cl   0  0  0  0  0  0  0  0  0  0  0  0
   14.0004   -6.7993    0.0000 P    0  0  0  0  0  0  0  0  0  0  0  0
   17.3248   -7.9516    0.0000 C    0  0  0  0  0  0  0  0  0  0  0  0
   15.9952   -7.9516    0.0000 C    0  0  0  0  0  0  0  0  0  0  0  0
   17.9900   -6.7993    0.0000 C    0  0  0  0  0  0  0  0  0  0  0  0
   15.3304   -6.7993    0.0000 C    0  0  0  0  0  0  0  0  0  0  0  0
   17.3248   -5.6557    0.0000 C    0  0  0  0  0  0  0  0  0  0  0  0
   15.9952   -5.6557    0.0000 C    0  0  0  0  0  0  0  0  0  0  0  0
   15.4810   -5.0351    0.0000 C    0  0  0  0  0  0  0  0  0  0  0  0
   15.7024   -3.7230    0.0000 C    0  0  0  0  0  0  0  0  0  0  0  0
   14.2310   -5.4963    0.0000 C    0  0  0  0  0  0  0  0  0  0  0  0
   14.6831   -2.8721    0.0000 C    0  0  0  0  0  0  0  0  0  0  0  0
   13.2117   -4.6451    0.0000 C    0  0  0  0  0  0  0  0  0  0  0  0
   13.4419   -3.3330    0.0000 C    0  0  0  0  0  0  0  0  0  0  0  0
   14.0004   -8.1289    0.0000 C    0  0  0  0  0  0  0  0  0  0  0  0
   15.1531   -8.7845    0.0000 C    0  0  0  0  0  0  0  0  0  0  0  0
   15.1531  -10.1145    0.0000 O    0  0  0  0  0  0  0  0  0  0  0  0
   16.3055  -10.7793    0.0000 C    0  0  0  0  0  0  0  0  0  0  0  0
   12.6708   -8.1289    0.0000 C    0  0  0  0  0  0  0  0  0  0  0  0
   12.6708   -9.4497    0.0000 C    0  0  0  0  0  0  0  0  0  0  0  0
   12.6708  -10.7793    0.0000 C    0  0  0  0  0  0  0  0  0  0  0  0
   13.8231  -11.4442    0.0000 C    0  0  0  0  0  0  0  0  0  0  0  0
   11.5275  -11.4442    0.0000 C    0  0  0  0  0  0  0  0  0  0  0  0
   13.8231  -12.7742    0.0000 C    0  0  0  0  0  0  0  0  0  0  0  0
   11.5275  -12.7742    0.0000 C    0  0  0  0  0  0  0  0  0  0  0  0
   12.6708  -13.4390    0.0000 C    0  0  0  0  0  0  0  0  0  0  0  0
  2  3  1  0  0  0  0
  2  4  1  0  0  0  0
  3  5  1  0  0  0  0
  4  6  1  0  0  0  0
  5  7  1  0  0  0  0
  6  7  1  0  0  0  0
  1  5  1  0  0  0  0
  8  9  1  0  0  0  0
  8 10  1  0  0  0  0
  9 11  1  0  0  0  0
 10 12  1  0  0  0  0
 11 13  1  0  0  0  0
 12 13  1  0  0  0  0
  1 10  1  0  0  0  0
  1 14  1  0  0  0  0
 14 15  1  0  0  0  0
 15 16  1  0  0  0  0
 16 17  1  0  0  0  0
 18 19  1  0  0  0  0
 18 20  1  0  0  0  0
 21 22  1  0  0  0  0
 21 23  1  0  0  0  0
 22 24  1  0  0  0  0
 23 25  1  0  0  0  0
 24 26  1  0  0  0  0
 25 26  1  0  0  0  0
 20 24  1  0  0  0  0
 27 28  1  0  0  0  0
 27 29  1  0  0  0  0
 28 30  1  0  0  0  0
 29 31  1  0  0  0  0
 30 32  1  0  0  0  0
 31 32  1  0  0  0  0
 20 29  1  0  0  0  0
 20 33  1  0  0  0  0
 33 34  1  0  0  0  0
 34 35  1  0  0  0  0
 35 36  1  0  0  0  0
  1 18  1  0  0  0  0
 18 37  1  0  0  0  0
 37 38  3  0  0  0  0
 39 40  1  0  0  0  0
 39 41  2  0  0  0  0
 40 42  2  0  0  0  0
 41 43  1  0  0  0  0
 42 44  1  0  0  0  0
 43 44  2  0  0  0  0
 38 39  1  0  0  0  0
M  END
> <NMREDATA_VERSION>
1.1

> <NMREDATA_LEVEL>
0

> <NMREDATA_SOLVENT>
C6D6

> <NMREDATA_TEMPERATURE>
295

> <NMREDATA_FORMULA>
C38H65ClO2P2Rh

> <NMREDATA_SMILES>
COCCP([Rh](P(C1CCCCC1)(C1CCCCC1)CCOC)(C#Cc1ccccc1)Cl)(C1CCCCC1)C1CCCCC1

> <NMREDATA_ASSIGNMENT>
Rh18, 1120.00, 18

> <NMREDATA_1D_103Rh>
1120.00, L=Rh18

$$$$

  ACD/LABS03212412332D

 58 65  0  0  0  0  0  0  0  0  2 V2000
   15.2261   -9.3595    0.0000 C    0  0  0  0  0  0  0  0  0  0  0  0
   16.3822  -10.0171    0.0000 C    0  0  0  0  0  0  0  0  0  0  0  0
   14.0778  -10.0180    0.0000 C    0  0  0  0  0  0  0  0  0  0  0  0
   16.3819  -11.3482    0.0000 C    0  0  0  0  0  0  0  0  0  0  0  0
   14.0777  -11.3487    0.0000 C    0  0  0  0  0  0  0  0  0  0  0  0
   15.2295  -12.0137    0.0000 C    0  0  0  0  0  0  0  0  0  0  0  0
   11.6104   -9.5043    0.0000 P    0  0  0  0  0  0  0  0  0  0  0  0
    9.5902   -6.6181    0.0000 C    0  0  0  0  0  0  0  0  0  0  0  0
    9.9587   -7.8955    0.0000 C    0  0  0  0  0  0  0  0  0  0  0  0
   10.5098   -5.6639    0.0000 C    0  0  0  0  0  0  0  0  0  0  0  0
   11.2465   -8.2191    0.0000 C    0  0  0  0  0  0  0  0  0  0  0  0
   11.8097   -5.9847    0.0000 C    0  0  0  0  0  0  0  0  0  0  0  0
   12.1658   -7.2653    0.0000 C    0  0  0  0  0  0  0  0  0  0  0  0
   13.2629  -11.0926    0.0000 C    0  0  0  0  0  0  0  0  0  0  0  0
   13.6237  -12.3660    0.0000 C    0  0  0  0  0  0  0  0  0  0  0  0
   11.9677  -10.7647    0.0000 C    0  0  0  0  0  0  0  0  0  0  0  0
   12.6999  -13.3277    0.0000 C    0  0  0  0  0  0  0  0  0  0  0  0
   11.0517  -11.7308    0.0000 C    0  0  0  0  0  0  0  0  0  0  0  0
   11.4121  -13.0041    0.0000 C    0  0  0  0  0  0  0  0  0  0  0  0
   12.9260   -9.3530    0.0000 Rh   0  0  0  0  0  0  0  0  0  0  0  0
   11.8393   -5.0286    0.0000 P    0  0  0  0  0  0  0  0  0  0  0  0
   15.0718   -3.8641    0.0000 C    0  0  0  0  0  0  0  0  0  0  0  0
   13.7471   -3.9595    0.0000 C    0  0  0  0  0  0  0  0  0  0  0  0
   15.8121   -4.9572    0.0000 C    0  0  0  0  0  0  0  0  0  0  0  0
   13.1664   -5.1600    0.0000 C    0  0  0  0  0  0  0  0  0  0  0  0
   15.2314   -6.1577    0.0000 C    0  0  0  0  0  0  0  0  0  0  0  0
   13.9151   -6.2579    0.0000 C    0  0  0  0  0  0  0  0  0  0  0  0
   13.1873   -3.1547    0.0000 C    0  0  0  0  0  0  0  0  0  0  0  0
   13.3185   -1.8280    0.0000 C    0  0  0  0  0  0  0  0  0  0  0  0
   11.9707   -3.7015    0.0000 C    0  0  0  0  0  0  0  0  0  0  0  0
   12.2361   -1.0599    0.0000 C    0  0  0  0  0  0  0  0  0  0  0  0
   10.8926   -2.9259    0.0000 C    0  0  0  0  0  0  0  0  0  0  0  0
   11.0240   -1.5988    0.0000 C    0  0  0  0  0  0  0  0  0  0  0  0
   12.0005  -13.7229    0.0000 C    0  0  0  0  0  0  0  0  0  0  0  0
   11.7244  -15.0172    0.0000 C    0  0  0  0  0  0  0  0  0  0  0  0
   11.4510  -16.3240    0.0000 C    0  0  0  0  0  0  0  0  0  0  0  0
   10.1787  -16.7362    0.0000 C    0  0  0  0  0  0  0  0  0  0  0  0
   12.4348  -17.2094    0.0000 C    0  0  0  0  0  0  0  0  0  0  0  0
    9.9105  -18.0349    0.0000 C    0  0  0  0  0  0  0  0  0  0  0  0
   12.1616  -18.5158    0.0000 C    0  0  0  0  0  0  0  0  0  0  0  0
   10.8943  -18.9203    0.0000 C    0  0  0  0  0  0  0  0  0  0  0  0
   10.5617   -4.6701    0.0000 C    0  0  0  0  0  0  0  0  0  0  0  0
    9.6040   -5.6017    0.0000 C    0  0  0  0  0  0  0  0  0  0  0  0
   10.2298   -3.3830    0.0000 C    0  0  0  0  0  0  0  0  0  0  0  0
    8.3260   -5.2430    0.0000 C    0  0  0  0  0  0  0  0  0  0  0  0
    8.9446   -3.0196    0.0000 C    0  0  0  0  0  0  0  0  0  0  0  0
    7.9941   -3.9558    0.0000 C    0  0  0  0  0  0  0  0  0  0  0  0
   10.4126  -10.0719    0.0000 C    0  0  0  0  0  0  0  0  0  0  0  0
    9.3169   -9.3268    0.0000 C    0  0  0  0  0  0  0  0  0  0  0  0
   10.3206  -11.4013    0.0000 C    0  0  0  0  0  0  0  0  0  0  0  0
    8.1142   -9.9020    0.0000 C    0  0  0  0  0  0  0  0  0  0  0  0
    9.1183  -11.9768    0.0000 C    0  0  0  0  0  0  0  0  0  0  0  0
    8.0228  -11.2313    0.0000 C    0  0  0  0  0  0  0  0  0  0  0  0
   13.9091   -8.4663    0.0000 O    0  0  0  0  0  0  0  0  0  0  0  0
   13.6456   -7.1675    0.0000 O    0  0  0  0  0  0  0  0  0  0  0  0
   17.5337  -12.0132    0.0000 C    0  0  0  0  0  0  0  0  0  0  0  0
   18.6863  -11.3474    0.0000 N    0  3  0  0  0  0  0  0  0  0  0  0
   19.8389  -10.6815    0.0000 C    0  5  0  0  0  0  0  0  0  0  0  0
  1  2  1  0  0  0  0
  1  3  2  0  0  0  0
  2  4  2  0  0  0  0
  3  5  1  0  0  0  0
  4  6  1  0  0  0  0
  5  6  2  0  0  0  0
  8  9  1  0  0  0  0
  8 10  2  0  0  0  0
  9 11  2  0  0  0  0
 10 12  1  0  0  0  0
 11 13  1  0  0  0  0
 12 13  2  0  0  0  0
  7 11  1  0  0  0  0
 14 15  1  0  0  0  0
 14 16  2  0  0  0  0
 15 17  2  0  0  0  0
 16 18  1  0  0  0  0
 17 19  1  0  0  0  0
 18 19  2  0  0  0  0
  7 16  1  0  0  0  0
 20 21  1  0  0  0  0
 22 23  2  0  0  0  0
 22 24  1  0  0  0  0
 23 25  1  0  0  0  0
 24 26  2  0  0  0  0
 25 27  2  0  0  0  0
 26 27  1  0  0  0  0
 21 25  1  0  0  0  0
 28 29  1  0  0  0  0
 28 30  2  0  0  0  0
 29 31  2  0  0  0  0
 30 32  1  0  0  0  0
 31 33  1  0  0  0  0
 32 33  2  0  0  0  0
 21 30  1  0  0  0  0
  7 20  1  0  0  0  0
 20 34  1  0  0  0  0
 34 35  3  0  0  0  0
 36 37  1  0  0  0  0
 36 38  2  0  0  0  0
 37 39  2  0  0  0  0
 38 40  1  0  0  0  0
 39 41  1  0  0  0  0
 40 41  2  0  0  0  0
 35 36  1  0  0  0  0
 42 43  1  0  0  0  0
 42 44  2  0  0  0  0
 43 45  2  0  0  0  0
 44 46  1  0  0  0  0
 45 47  1  0  0  0  0
 46 47  2  0  0  0  0
 21 42  1  0  0  0  0
 48 49  1  0  0  0  0
 48 50  2  0  0  0  0
 49 51  2  0  0  0  0
 50 52  1  0  0  0  0
 51 53  1  0  0  0  0
 52 53  2  0  0  0  0
  7 48  1  0  0  0  0
 20 54  1  0  0  0  0
 54 55  2  0  0  0  0
  3 20  1  0  0  0  0
  4 56  1  0  0  0  0
 57 58  3  0  0  0  0
 56 57  1  0  0  0  0
M  END
> <NMREDATA_VERSION>
1.1

> <NMREDATA_LEVEL>
0

> <NMREDATA_SOLVENT>
toluene-d8

> <NMREDATA_TEMPERATURE>
300

> <NMREDATA_FORMULA>
C52H45NO2P2Rh

> <NMREDATA_SMILES>
C#NCc1ccc(cc1)[Rh](P(c1ccccc1)(c1ccccc1)c1ccccc1)(P(c1ccccc1)(c1ccccc1)c1ccccc1)(C#Cc1ccccc1)[O]=O

> <NMREDATA_ASSIGNMENT>
Rh20, 1010.00, 20

> <NMREDATA_1D_103Rh>
1010.00, L=Rh20

$$$$

  ACD/LABS03212412372D

 51 57  0  0  0  0  0  0  0  0  1 V2000
   21.4347  -15.0598    0.0000 B    0  0  0  0  0  0  0  0  0  0  0  0
   20.1224  -15.2816    0.0000 N    0  0  0  0  0  0  0  0  0  0  0  0
   19.1826  -14.3595    0.0000 C    0  0  0  0  0  0  0  0  0  0  0  0
   19.5462  -16.4788    0.0000 N    0  0  0  0  0  0  0  0  0  0  0  0
   18.0032  -14.9801    0.0000 C    0  0  0  0  0  0  0  0  0  0  0  0
   18.2339  -16.2923    0.0000 C    0  0  0  0  0  0  0  0  0  0  0  0
   22.7470  -14.8295    0.0000 N    0  0  0  0  0  0  0  0  0  0  0  0
   23.7045  -15.7516    0.0000 C    0  0  0  0  0  0  0  0  0  0  0  0
   23.3321  -13.6323    0.0000 N    0  0  0  0  0  0  0  0  0  0  0  0
   24.8751  -15.1310    0.0000 C    0  0  0  0  0  0  0  0  0  0  0  0
   24.6447  -13.8184    0.0000 C    0  0  0  0  0  0  0  0  0  0  0  0
   21.6651  -16.3636    0.0000 N    0  0  0  0  0  0  0  0  0  0  0  0
   20.7341  -17.3211    0.0000 C    0  0  0  0  0  0  0  0  0  0  0  0
   22.8622  -16.9487    0.0000 N    0  0  0  0  0  0  0  0  0  0  0  0
   21.3638  -18.5005    0.0000 C    0  0  0  0  0  0  0  0  0  0  0  0
   22.6673  -18.2698    0.0000 C    0  0  0  0  0  0  0  0  0  0  0  0
   25.5757  -12.8701    0.0000 C    0  0  0  0  0  0  0  0  0  0  0  0
   23.7400  -17.0816    0.0000 C    0  0  0  0  0  0  0  0  0  0  0  0
   23.6248  -19.1923    0.0000 C    0  0  0  0  0  0  0  0  0  0  0  0
   19.4222  -17.3654    0.0000 C    0  0  0  0  0  0  0  0  0  0  0  0
   17.3030  -17.2503    0.0000 C    0  0  0  0  0  0  0  0  0  0  0  0
   19.3690  -13.0384    0.0000 C    0  0  0  0  0  0  0  0  0  0  0  0
   24.5292  -12.0100    0.0000 C    0  0  0  0  0  0  0  0  0  0  0  0
   25.1944  -10.8572    0.0000 C    0  0  0  0  0  0  0  0  0  0  0  0
   23.1992  -12.0100    0.0000 C    0  0  0  0  0  0  0  0  0  0  0  0
   24.5292   -9.7043    0.0000 C    0  0  0  0  0  0  0  0  0  0  0  0
   22.5344  -10.8572    0.0000 C    0  0  0  0  0  0  0  0  0  0  0  0
   23.1992   -9.7043    0.0000 C    0  0  0  0  0  0  0  0  0  0  0  0
   17.2232  -10.8572    0.0000 C    0  0  0  0  0  0  0  0  0  0  0  0
   17.8881   -9.7043    0.0000 C    0  0  0  0  0  0  0  0  0  0  0  0
   17.8881  -12.0100    0.0000 C    0  0  0  0  0  0  0  0  0  0  0  0
   19.2181   -9.7043    0.0000 C    0  0  0  0  0  0  0  0  0  0  0  0
   19.2181  -12.0100    0.0000 C    0  0  0  0  0  0  0  0  0  0  0  0
   19.8832  -10.8572    0.0000 C    0  0  0  0  0  0  0  0  0  0  0  0
   22.3568   -8.8620    0.0000 C    0  0  0  0  0  0  0  0  0  0  0  0
   22.3568   -7.5320    0.0000 C    0  0  0  0  0  0  0  0  0  0  0  0
   21.2040   -9.5272    0.0000 C    0  0  0  0  0  0  0  0  0  0  0  0
   21.2040   -6.8668    0.0000 C    0  0  0  0  0  0  0  0  0  0  0  0
   20.0604   -8.8620    0.0000 C    0  0  0  0  0  0  0  0  0  0  0  0
   20.0604   -7.5320    0.0000 C    0  0  0  0  0  0  0  0  0  0  0  0
   21.2040  -13.7475    0.0000 Rh   0  0  0  0  0  0  0  0  0  0  0  0
   22.5344  -13.7475    0.0000 H    0  0  0  0  0  0  0  0  0  0  0  0
   19.8832  -13.7475    0.0000 C    0  0  0  0  0  0  0  0  0  0  0  0
   18.5532  -13.7475    0.0000 C    0  0  0  0  0  0  0  0  0  0  0  0
   14.5629  -13.7475    0.0000 C    0  0  0  0  0  0  0  0  0  0  0  0
   15.2281  -12.6039    0.0000 C    0  0  0  0  0  0  0  0  0  0  0  0
   15.2281  -14.9003    0.0000 C    0  0  0  0  0  0  0  0  0  0  0  0
   16.5581  -12.6039    0.0000 C    0  0  0  0  0  0  0  0  0  0  0  0
   16.5581  -14.9003    0.0000 C    0  0  0  0  0  0  0  0  0  0  0  0
   17.2232  -13.7475    0.0000 C    0  0  0  0  0  0  0  0  0  0  0  0
   21.2040  -10.8572    0.0000 P    0  0  0  0  0  0  0  0  0  0  0  0
  2  3  1  0  0  0  0
  2  4  1  0  0  0  0
  3  5  2  0  0  0  0
  4  6  2  0  0  0  0
  5  6  1  0  0  0  0
  1  2  1  0  0  0  0
  7  8  1  0  0  0  0
  7  9  1  0  0  0  0
  8 10  2  0  0  0  0
  9 11  2  0  0  0  0
 10 11  1  0  0  0  0
  1  7  1  0  0  0  0
 12 13  1  0  0  0  0
 12 14  1  0  0  0  0
 13 15  2  0  0  0  0
 14 16  2  0  0  0  0
 15 16  1  0  0  0  0
  1 12  1  0  0  0  0
 11 17  1  0  0  0  0
  8 18  1  0  0  0  0
 16 19  1  0  0  0  0
 13 20  1  0  0  0  0
  6 21  1  0  0  0  0
  3 22  1  0  0  0  0
 23 24  1  0  0  0  0
 23 25  2  0  0  0  0
 24 26  2  0  0  0  0
 25 27  1  0  0  0  0
 26 28  1  0  0  0  0
 27 28  2  0  0  0  0
 29 30  1  0  0  0  0
 29 31  2  0  0  0  0
 30 32  2  0  0  0  0
 31 33  1  0  0  0  0
 32 34  1  0  0  0  0
 33 34  2  0  0  0  0
 35 36  1  0  0  0  0
 35 37  2  0  0  0  0
 36 38  2  0  0  0  0
 37 39  1  0  0  0  0
 38 40  1  0  0  0  0
 39 40  2  0  0  0  0
 41 42  1  0  0  0  0
 41 43  1  0  0  0  0
 43 44  3  0  0  0  0
 45 46  1  0  0  0  0
 45 47  2  0  0  0  0
 46 48  2  0  0  0  0
 47 49  1  0  0  0  0
 48 50  1  0  0  0  0
 49 50  2  0  0  0  0
 44 50  1  0  0  0  0
 41 51  1  0  0  0  0
 37 51  1  0  0  0  0
 34 51  1  0  0  0  0
 27 51  1  0  0  0  0
  1 41  1  0  0  0  0
M  END
> <NMREDATA_VERSION>
1.1

> <NMREDATA_LEVEL>
0

> <NMREDATA_SOLVENT>
CD2Cl2

> <NMREDATA_TEMPERATURE>
300

> <NMREDATA_FORMULA>
C41H43BN6PRh

> <NMREDATA_SMILES>
Cc1cc(n(n1)[B]([RhH](P(c1ccccc1)(c1ccccc1)c1ccccc1)C#Cc1ccccc1)(n1nc(cc1C)C)n1nc(cc1C)C)C

> <NMREDATA_ASSIGNMENT>
Rh41, 1423.00, 41

> <NMREDATA_1D_103Rh>
1423.00, L=Rh41

$$$$

  ACD/LABS03212412382D

 54 60  0  0  0  0  0  0  0  0  1 V2000
   21.4347  -15.0598    0.0000 B    0  0  0  0  0  0  0  0  0  0  0  0
   20.1224  -15.2816    0.0000 N    0  0  0  0  0  0  0  0  0  0  0  0
   19.1826  -14.3595    0.0000 C    0  0  0  0  0  0  0  0  0  0  0  0
   19.5462  -16.4788    0.0000 N    0  0  0  0  0  0  0  0  0  0  0  0
   18.0032  -14.9801    0.0000 C    0  0  0  0  0  0  0  0  0  0  0  0
   18.2339  -16.2923    0.0000 C    0  0  0  0  0  0  0  0  0  0  0  0
   22.7470  -14.8295    0.0000 N    0  0  0  0  0  0  0  0  0  0  0  0
   23.7045  -15.7516    0.0000 C    0  0  0  0  0  0  0  0  0  0  0  0
   23.3321  -13.6323    0.0000 N    0  0  0  0  0  0  0  0  0  0  0  0
   24.8751  -15.1310    0.0000 C    0  0  0  0  0  0  0  0  0  0  0  0
   24.6447  -13.8184    0.0000 C    0  0  0  0  0  0  0  0  0  0  0  0
   21.6651  -16.3636    0.0000 N    0  0  0  0  0  0  0  0  0  0  0  0
   20.7341  -17.3211    0.0000 C    0  0  0  0  0  0  0  0  0  0  0  0
   22.8622  -16.9487    0.0000 N    0  0  0  0  0  0  0  0  0  0  0  0
   21.3638  -18.5005    0.0000 C    0  0  0  0  0  0  0  0  0  0  0  0
   22.6673  -18.2698    0.0000 C    0  0  0  0  0  0  0  0  0  0  0  0
   25.5757  -12.8701    0.0000 C    0  0  0  0  0  0  0  0  0  0  0  0
   23.7400  -17.0816    0.0000 C    0  0  0  0  0  0  0  0  0  0  0  0
   23.6248  -19.1923    0.0000 C    0  0  0  0  0  0  0  0  0  0  0  0
   19.4222  -17.3654    0.0000 C    0  0  0  0  0  0  0  0  0  0  0  0
   17.3030  -17.2503    0.0000 C    0  0  0  0  0  0  0  0  0  0  0  0
   19.3690  -13.0384    0.0000 C    0  0  0  0  0  0  0  0  0  0  0  0
   24.5292  -12.0100    0.0000 C    0  0  0  0  0  0  0  0  0  0  0  0
   25.1944  -10.8572    0.0000 C    0  0  0  0  0  0  0  0  0  0  0  0
   23.1992  -12.0100    0.0000 C    0  0  0  0  0  0  0  0  0  0  0  0
   24.5292   -9.7043    0.0000 C    0  0  0  0  0  0  0  0  0  0  0  0
   22.5344  -10.8572    0.0000 C    0  0  0  0  0  0  0  0  0  0  0  0
   23.1992   -9.7043    0.0000 C    0  0  0  0  0  0  0  0  0  0  0  0
   17.2232  -10.8572    0.0000 C    0  0  0  0  0  0  0  0  0  0  0  0
   17.8881   -9.7043    0.0000 C    0  0  0  0  0  0  0  0  0  0  0  0
   17.8881  -12.0100    0.0000 C    0  0  0  0  0  0  0  0  0  0  0  0
   19.2181   -9.7043    0.0000 C    0  0  0  0  0  0  0  0  0  0  0  0
   19.2181  -12.0100    0.0000 C    0  0  0  0  0  0  0  0  0  0  0  0
   19.8832  -10.8572    0.0000 C    0  0  0  0  0  0  0  0  0  0  0  0
   22.3568   -8.8620    0.0000 C    0  0  0  0  0  0  0  0  0  0  0  0
   22.3568   -7.5320    0.0000 C    0  0  0  0  0  0  0  0  0  0  0  0
   21.2040   -9.5272    0.0000 C    0  0  0  0  0  0  0  0  0  0  0  0
   21.2040   -6.8668    0.0000 C    0  0  0  0  0  0  0  0  0  0  0  0
   20.0604   -8.8620    0.0000 C    0  0  0  0  0  0  0  0  0  0  0  0
   20.0604   -7.5320    0.0000 C    0  0  0  0  0  0  0  0  0  0  0  0
   21.2040  -13.7475    0.0000 Rh   0  0  0  0  0  0  0  0  0  0  0  0
   22.5344  -13.7475    0.0000 H    0  0  0  0  0  0  0  0  0  0  0  0
   19.8832  -13.7475    0.0000 C    0  0  0  0  0  0  0  0  0  0  0  0
   18.5532  -13.7475    0.0000 C    0  0  0  0  0  0  0  0  0  0  0  0
   14.5629  -13.7475    0.0000 C    0  0  0  0  0  0  0  0  0  0  0  0
   15.2281  -12.6039    0.0000 C    0  0  0  0  0  0  0  0  0  0  0  0
   15.2281  -14.9003    0.0000 C    0  0  0  0  0  0  0  0  0  0  0  0
   16.5581  -12.6039    0.0000 C    0  0  0  0  0  0  0  0  0  0  0  0
   16.5581  -14.9003    0.0000 C    0  0  0  0  0  0  0  0  0  0  0  0
   17.2232  -13.7475    0.0000 C    0  0  0  0  0  0  0  0  0  0  0  0
   21.2040  -10.8572    0.0000 P    0  0  0  0  0  0  0  0  0  0  0  0
   16.1202  -10.8643    0.0000 F    0  0  0  0  0  0  0  0  0  0  0  0
   21.2319   -6.0571    0.0000 F    0  0  0  0  0  0  0  0  0  0  0  0
   26.0872  -10.8643    0.0000 F    0  0  0  0  0  0  0  0  0  0  0  0
  2  3  1  0  0  0  0
  2  4  1  0  0  0  0
  3  5  2  0  0  0  0
  4  6  2  0  0  0  0
  5  6  1  0  0  0  0
  1  2  1  0  0  0  0
  7  8  1  0  0  0  0
  7  9  1  0  0  0  0
  8 10  2  0  0  0  0
  9 11  2  0  0  0  0
 10 11  1  0  0  0  0
  1  7  1  0  0  0  0
 12 13  1  0  0  0  0
 12 14  1  0  0  0  0
 13 15  2  0  0  0  0
 14 16  2  0  0  0  0
 15 16  1  0  0  0  0
  1 12  1  0  0  0  0
 11 17  1  0  0  0  0
  8 18  1  0  0  0  0
 16 19  1  0  0  0  0
 13 20  1  0  0  0  0
  6 21  1  0  0  0  0
  3 22  1  0  0  0  0
 23 24  1  0  0  0  0
 23 25  2  0  0  0  0
 24 26  2  0  0  0  0
 25 27  1  0  0  0  0
 26 28  1  0  0  0  0
 27 28  2  0  0  0  0
 29 30  1  0  0  0  0
 29 31  2  0  0  0  0
 30 32  2  0  0  0  0
 31 33  1  0  0  0  0
 32 34  1  0  0  0  0
 33 34  2  0  0  0  0
 35 36  1  0  0  0  0
 35 37  2  0  0  0  0
 36 38  2  0  0  0  0
 37 39  1  0  0  0  0
 38 40  1  0  0  0  0
 39 40  2  0  0  0  0
 41 42  1  0  0  0  0
 41 43  1  0  0  0  0
 43 44  3  0  0  0  0
 45 46  1  0  0  0  0
 45 47  2  0  0  0  0
 46 48  2  0  0  0  0
 47 49  1  0  0  0  0
 48 50  1  0  0  0  0
 49 50  2  0  0  0  0
 44 50  1  0  0  0  0
 41 51  1  0  0  0  0
 37 51  1  0  0  0  0
 34 51  1  0  0  0  0
 27 51  1  0  0  0  0
  1 41  1  0  0  0  0
 29 52  1  0  0  0  0
 38 53  1  0  0  0  0
 24 54  1  0  0  0  0
M  END
> <NMREDATA_VERSION>
1.1

> <NMREDATA_LEVEL>
0

> <NMREDATA_SOLVENT>
CD2Cl2

> <NMREDATA_TEMPERATURE>
300

> <NMREDATA_FORMULA>
C41H40BF3N6PRh

> <NMREDATA_SMILES>
Fc1ccc(cc1)P([RhH]([B](n1nc(cc1C)C)(n1nc(cc1C)C)n1nc(cc1C)C)C#Cc1ccccc1)(c1ccc(cc1)F)c1ccc(cc1)F

> <NMREDATA_ASSIGNMENT>
Rh41, 1417.00, 41

> <NMREDATA_1D_103Rh>
1417.00, L=Rh41

$$$$

  ACD/LABS03212412412D

 44 47  0  0  0  0  0  0  0  0  1 V2000
   19.1984  -15.6332    0.0000 N    0  0  0  0  0  0  0  0  0  0  0  0
   19.8632  -16.7847    0.0000 C    0  0  0  0  0  0  0  0  0  0  0  0
   19.2133  -17.9278    0.0000 C    0  0  0  0  0  0  0  0  0  0  0  0
   21.1940  -16.7843    0.0000 C    0  0  0  0  0  0  0  0  0  0  0  0
   21.8595  -15.6322    0.0000 C    0  0  0  0  0  0  0  0  0  0  0  0
   21.8590  -17.9361    0.0000 N    0  0  0  0  0  0  0  0  0  0  0  0
   17.8835  -15.6245    0.0000 O    0  0  0  0  0  0  0  0  0  0  0  0
   23.1893  -17.9355    0.0000 O    0  0  0  0  0  0  0  0  0  0  0  0
   17.2083  -12.1862    0.0000 N    0  0  0  0  0  0  0  0  0  0  0  0
   16.5433  -11.0344    0.0000 C    0  0  0  0  0  0  0  0  0  0  0  0
   15.2211  -11.0303    0.0000 C    0  0  0  0  0  0  0  0  0  0  0  0
   17.2093   -9.8825    0.0000 C    0  0  0  0  0  0  0  0  0  0  0  0
   18.5352   -9.8744    0.0000 C    0  0  0  0  0  0  0  0  0  0  0  0
   16.5443   -8.7307    0.0000 N    0  0  0  0  0  0  0  0  0  0  0  0
   16.5509  -13.3336    0.0000 O    0  0  0  0  0  0  0  0  0  0  0  0
   17.2054   -7.5711    0.0000 O    0  0  0  0  0  0  0  0  0  0  0  0
   13.5047  -12.0826    0.0000 C    0  0  0  0  0  0  0  0  0  0  0  0
   14.8176  -11.8567    0.0000 C    0  0  0  0  0  0  0  0  0  0  0  0
   13.0472  -13.3293    0.0000 C    0  0  0  0  0  0  0  0  0  0  0  0
   15.6734  -12.8781    0.0000 C    0  0  0  0  0  0  0  0  0  0  0  0
   13.9027  -14.3504    0.0000 C    0  0  0  0  0  0  0  0  0  0  0  0
   15.2162  -14.1246    0.0000 C    0  0  0  0  0  0  0  0  0  0  0  0
   16.1235  -18.6576    0.0000 C    0  0  0  0  0  0  0  0  0  0  0  0
   15.6670  -17.4061    0.0000 C    0  0  0  0  0  0  0  0  0  0  0  0
   17.4319  -18.8847    0.0000 C    0  0  0  0  0  0  0  0  0  0  0  0
   16.5192  -16.3815    0.0000 C    0  0  0  0  0  0  0  0  0  0  0  0
   18.2840  -17.8606    0.0000 C    0  0  0  0  0  0  0  0  0  0  0  0
   17.8273  -16.6088    0.0000 C    0  0  0  0  0  0  0  0  0  0  0  0
   13.7604  -15.1495    0.0000 C    0  0  0  0  0  0  0  0  0  0  0  0
   14.9080  -15.8072    0.0000 C    0  0  0  0  0  0  0  0  0  0  0  0
   12.6085  -15.8145    0.0000 C    0  0  0  0  0  0  0  0  0  0  0  0
   14.9115  -17.1254    0.0000 C    0  0  0  0  0  0  0  0  0  0  0  0
   12.6121  -17.1327    0.0000 C    0  0  0  0  0  0  0  0  0  0  0  0
   13.7597  -17.7904    0.0000 C    0  0  0  0  0  0  0  0  0  0  0  0
   22.9616  -11.1574    0.0000 C    0  0  0  0  0  0  0  0  0  0  0  0
   22.9651  -12.4756    0.0000 C    0  0  0  0  0  0  0  0  0  0  0  0
   21.8140  -10.4997    0.0000 C    0  0  0  0  0  0  0  0  0  0  0  0
   21.8133  -13.1406    0.0000 C    0  0  0  0  0  0  0  0  0  0  0  0
   20.6622  -11.1647    0.0000 C    0  0  0  0  0  0  0  0  0  0  0  0
   20.6657  -12.4829    0.0000 C    0  0  0  0  0  0  0  0  0  0  0  0
   17.2113  -14.4773    0.0000 Rh   0  0  0  0  0  0  0  0  0  0  0  0
   18.3624  -13.8127    0.0000 C    0  0  0  0  0  0  0  0  0  0  0  0
   19.5142  -13.1477    0.0000 C    0  0  0  0  0  0  0  0  0  0  0  0
   16.0594  -15.1423    0.0000 P    0  0  0  0  0  0  0  0  0  0  0  0
  1  2  2  0  0  0  0
  2  3  1  0  0  0  0
  2  4  1  0  0  0  0
  4  5  1  0  0  0  0
  4  6  2  0  0  0  0
  1  7  1  0  0  0  0
  6  8  1  0  0  0  0
  9 10  2  0  0  0  0
 10 11  1  0  0  0  0
 10 12  1  0  0  0  0
 12 13  1  0  0  0  0
 12 14  2  0  0  0  0
  9 15  1  0  0  0  0
 14 16  1  0  0  0  0
 17 18  1  0  0  0  0
 17 19  2  0  0  0  0
 18 20  2  0  0  0  0
 19 21  1  0  0  0  0
 20 22  1  0  0  0  0
 21 22  2  0  0  0  0
 23 24  1  0  0  0  0
 23 25  2  0  0  0  0
 24 26  2  0  0  0  0
 25 27  1  0  0  0  0
 26 28  1  0  0  0  0
 27 28  2  0  0  0  0
 29 30  1  0  0  0  0
 29 31  2  0  0  0  0
 30 32  2  0  0  0  0
 31 33  1  0  0  0  0
 32 34  1  0  0  0  0
 33 34  2  0  0  0  0
 35 36  1  0  0  0  0
 35 37  2  0  0  0  0
 36 38  2  0  0  0  0
 37 39  1  0  0  0  0
 38 40  1  0  0  0  0
 39 40  2  0  0  0  0
 41 42  1  0  0  0  0
 42 43  3  0  0  0  0
 40 43  1  0  0  0  0
 41 44  1  0  0  0  0
 30 44  1  0  0  0  0
 26 44  1  0  0  0  0
 22 44  1  0  0  0  0
 15 41  1  0  0  0  0
  7 41  1  0  0  0  0
M  END
> <NMREDATA_VERSION>
1.1

> <NMREDATA_LEVEL>
0

> <NMREDATA_SOLVENT>
DCCl3

> <NMREDATA_TEMPERATURE>
298

> <NMREDATA_FORMULA>
C34H35N4O4PRh

> <NMREDATA_SMILES>
O/N=C(/C(=N/O[Rh](P(c1ccccc1)(c1ccccc1)c1ccccc1)(C#Cc1ccccc1)O/N=C(/C(=N/O)/C)\C)/C)\C

> <NMREDATA_ASSIGNMENT>
Rh41, 2265.00, 41

> <NMREDATA_1D_103Rh>
2265.00, L=Rh41

$$$$

  ACD/LABS03212412422D

 31 32  0  0  0  0  0  0  0  0  1 V2000
   19.1984  -15.6332    0.0000 N    0  0  0  0  0  0  0  0  0  0  0  0
   19.8632  -16.7847    0.0000 C    0  0  0  0  0  0  0  0  0  0  0  0
   19.2133  -17.9278    0.0000 C    0  0  0  0  0  0  0  0  0  0  0  0
   21.1940  -16.7843    0.0000 C    0  0  0  0  0  0  0  0  0  0  0  0
   21.8595  -15.6322    0.0000 C    0  0  0  0  0  0  0  0  0  0  0  0
   21.8590  -17.9361    0.0000 N    0  0  0  0  0  0  0  0  0  0  0  0
   17.8835  -15.6245    0.0000 O    0  0  0  0  0  0  0  0  0  0  0  0
   23.1893  -17.9355    0.0000 O    0  0  0  0  0  0  0  0  0  0  0  0
   17.2083  -12.1862    0.0000 N    0  0  0  0  0  0  0  0  0  0  0  0
   16.5433  -11.0344    0.0000 C    0  0  0  0  0  0  0  0  0  0  0  0
   15.2211  -11.0303    0.0000 C    0  0  0  0  0  0  0  0  0  0  0  0
   17.2093   -9.8825    0.0000 C    0  0  0  0  0  0  0  0  0  0  0  0
   18.5352   -9.8744    0.0000 C    0  0  0  0  0  0  0  0  0  0  0  0
   16.5443   -8.7307    0.0000 N    0  0  0  0  0  0  0  0  0  0  0  0
   16.5509  -13.3336    0.0000 O    0  0  0  0  0  0  0  0  0  0  0  0
   17.2054   -7.5711    0.0000 O    0  0  0  0  0  0  0  0  0  0  0  0
   22.9616  -11.1574    0.0000 C    0  0  0  0  0  0  0  0  0  0  0  0
   22.9651  -12.4756    0.0000 C    0  0  0  0  0  0  0  0  0  0  0  0
   21.8140  -10.4997    0.0000 C    0  0  0  0  0  0  0  0  0  0  0  0
   21.8133  -13.1406    0.0000 C    0  0  0  0  0  0  0  0  0  0  0  0
   20.6622  -11.1647    0.0000 C    0  0  0  0  0  0  0  0  0  0  0  0
   20.6657  -12.4829    0.0000 C    0  0  0  0  0  0  0  0  0  0  0  0
   17.2113  -14.4773    0.0000 Rh   0  0  0  0  0  0  0  0  0  0  0  0
   18.3624  -13.8127    0.0000 C    0  0  0  0  0  0  0  0  0  0  0  0
   19.5142  -13.1477    0.0000 C    0  0  0  0  0  0  0  0  0  0  0  0
   16.0616  -15.1461    0.0000 N    0  0  0  0  0  0  0  0  0  0  0  0
   16.0659  -16.4761    0.0000 C    0  0  0  0  0  0  0  0  0  0  0  0
   14.9076  -14.4848    0.0000 C    0  0  0  0  0  0  0  0  0  0  0  0
   14.9161  -17.1448    0.0000 C    0  0  0  0  0  0  0  0  0  0  0  0
   13.7579  -15.1535    0.0000 C    0  0  0  0  0  0  0  0  0  0  0  0
   13.7622  -16.4835    0.0000 C    0  0  0  0  0  0  0  0  0  0  0  0
  1  2  2  0  0  0  0
  2  3  1  0  0  0  0
  2  4  1  0  0  0  0
  4  5  1  0  0  0  0
  4  6  2  0  0  0  0
  1  7  1  0  0  0  0
  6  8  1  0  0  0  0
  9 10  2  0  0  0  0
 10 11  1  0  0  0  0
 10 12  1  0  0  0  0
 12 13  1  0  0  0  0
 12 14  2  0  0  0  0
  9 15  1  0  0  0  0
 14 16  1  0  0  0  0
 17 18  1  0  0  0  0
 17 19  2  0  0  0  0
 18 20  2  0  0  0  0
 19 21  1  0  0  0  0
 20 22  1  0  0  0  0
 21 22  2  0  0  0  0
 23 24  1  0  0  0  0
 24 25  3  0  0  0  0
 22 25  1  0  0  0  0
 15 23  1  0  0  0  0
  7 23  1  0  0  0  0
 26 27  1  0  0  0  0
 26 28  2  0  0  0  0
 27 29  2  0  0  0  0
 28 30  1  0  0  0  0
 29 31  1  0  0  0  0
 30 31  2  0  0  0  0
 23 26  1  0  0  0  0
M  END
> <NMREDATA_VERSION>
1.1

> <NMREDATA_LEVEL>
0

> <NMREDATA_SOLVENT>
DCCl3

> <NMREDATA_TEMPERATURE>
298

> <NMREDATA_FORMULA>
C21H25N5O4Rh

> <NMREDATA_SMILES>
O/N=C(/C(=N/O[Rh](N1=CC=CC=C1)(C#Cc1ccccc1)O/N=C(/C(=N/O)/C)\C)/C)\C

> <NMREDATA_ASSIGNMENT>
Rh23, 2823.00, 23

> <NMREDATA_1D_103Rh>
2823.00, L=Rh23

$$$$

  ACD/LABS03212412432D

 28 28  0  0  0  0  0  0  0  0  1 V2000
   19.1984  -15.6332    0.0000 N    0  0  0  0  0  0  0  0  0  0  0  0
   19.8632  -16.7847    0.0000 C    0  0  0  0  0  0  0  0  0  0  0  0
   19.2133  -17.9278    0.0000 C    0  0  0  0  0  0  0  0  0  0  0  0
   21.1940  -16.7843    0.0000 C    0  0  0  0  0  0  0  0  0  0  0  0
   21.8595  -15.6322    0.0000 C    0  0  0  0  0  0  0  0  0  0  0  0
   21.8590  -17.9361    0.0000 N    0  0  0  0  0  0  0  0  0  0  0  0
   17.8835  -15.6245    0.0000 O    0  0  0  0  0  0  0  0  0  0  0  0
   23.1893  -17.9355    0.0000 O    0  0  0  0  0  0  0  0  0  0  0  0
   17.2083  -12.1862    0.0000 N    0  0  0  0  0  0  0  0  0  0  0  0
   16.5433  -11.0344    0.0000 C    0  0  0  0  0  0  0  0  0  0  0  0
   15.2211  -11.0303    0.0000 C    0  0  0  0  0  0  0  0  0  0  0  0
   17.2093   -9.8825    0.0000 C    0  0  0  0  0  0  0  0  0  0  0  0
   18.5352   -9.8744    0.0000 C    0  0  0  0  0  0  0  0  0  0  0  0
   16.5443   -8.7307    0.0000 N    0  0  0  0  0  0  0  0  0  0  0  0
   16.5509  -13.3336    0.0000 O    0  0  0  0  0  0  0  0  0  0  0  0
   17.2054   -7.5711    0.0000 O    0  0  0  0  0  0  0  0  0  0  0  0
   22.9616  -11.1574    0.0000 C    0  0  0  0  0  0  0  0  0  0  0  0
   22.9651  -12.4756    0.0000 C    0  0  0  0  0  0  0  0  0  0  0  0
   21.8140  -10.4997    0.0000 C    0  0  0  0  0  0  0  0  0  0  0  0
   21.8133  -13.1406    0.0000 C    0  0  0  0  0  0  0  0  0  0  0  0
   20.6622  -11.1647    0.0000 C    0  0  0  0  0  0  0  0  0  0  0  0
   20.6657  -12.4829    0.0000 C    0  0  0  0  0  0  0  0  0  0  0  0
   17.2113  -14.4773    0.0000 Rh   0  0  0  0  0  0  0  0  0  0  0  0
   18.3624  -13.8127    0.0000 C    0  0  0  0  0  0  0  0  0  0  0  0
   19.5142  -13.1477    0.0000 C    0  0  0  0  0  0  0  0  0  0  0  0
   15.5113  -15.3351    0.0000 S    0  0  0  0  0  0  0  0  0  0  0  0
   14.3095  -14.5178    0.0000 C    0  0  0  0  0  0  0  0  0  0  0  0
   14.9986  -16.6010    0.0000 C    0  0  0  0  0  0  0  0  0  0  0  0
  1  2  2  0  0  0  0
  2  3  1  0  0  0  0
  2  4  1  0  0  0  0
  4  5  1  0  0  0  0
  4  6  2  0  0  0  0
  1  7  1  0  0  0  0
  6  8  1  0  0  0  0
  9 10  2  0  0  0  0
 10 11  1  0  0  0  0
 10 12  1  0  0  0  0
 12 13  1  0  0  0  0
 12 14  2  0  0  0  0
  9 15  1  0  0  0  0
 14 16  1  0  0  0  0
 17 18  1  0  0  0  0
 17 19  2  0  0  0  0
 18 20  2  0  0  0  0
 19 21  1  0  0  0  0
 20 22  1  0  0  0  0
 21 22  2  0  0  0  0
 23 24  1  0  0  0  0
 24 25  3  0  0  0  0
 22 25  1  0  0  0  0
 15 23  1  0  0  0  0
  7 23  1  0  0  0  0
 23 26  1  0  0  0  0
 26 27  1  0  0  0  0
 26 28  1  0  0  0  0
M  END
> <NMREDATA_VERSION>
1.1

> <NMREDATA_LEVEL>
0

> <NMREDATA_SOLVENT>
DCCl3

> <NMREDATA_TEMPERATURE>
298

> <NMREDATA_FORMULA>
C18H26N4O4RhS

> <NMREDATA_SMILES>
O/N=C(/C(=N/O[Rh](S(C)C)(C#Cc1ccccc1)O/N=C(/C(=N/O)/C)\C)/C)\C

> <NMREDATA_ASSIGNMENT>
Rh23, 2465.00, 23

> <NMREDATA_1D_103Rh>
2465.00, L=Rh23

$$$$

  ACD/LABS03212412522D

 54 60  0  0  0  0  0  0  0  0  2 V2000
   22.5502  -15.7270    0.0000 C    0  0  0  0  0  0  0  0  0  0  0  0
   21.2913  -15.2840    0.0000 C    0  0  0  0  0  0  0  0  0  0  0  0
   23.5513  -14.8763    0.0000 C    0  0  0  0  0  0  0  0  0  0  0  0
   21.0606  -13.9719    0.0000 C    0  0  0  0  0  0  0  0  0  0  0  0
   23.3210  -13.5641    0.0000 C    0  0  0  0  0  0  0  0  0  0  0  0
   22.0711  -13.1121    0.0000 C    0  0  0  0  0  0  0  0  0  0  0  0
   24.7393  -14.9738    0.0000 C    0  0  0  0  0  0  0  0  0  0  0  0
   25.5990  -15.9844    0.0000 C    0  0  0  0  0  0  0  0  0  0  0  0
   25.1913  -13.7240    0.0000 C    0  0  0  0  0  0  0  0  0  0  0  0
   26.9108  -15.7536    0.0000 C    0  0  0  0  0  0  0  0  0  0  0  0
   26.5030  -13.4846    0.0000 C    0  0  0  0  0  0  0  0  0  0  0  0
   27.3542  -14.5038    0.0000 C    0  0  0  0  0  0  0  0  0  0  0  0
   27.8595  -12.0925    0.0000 C    0  0  0  0  0  0  0  0  0  0  0  0
   29.1093  -11.6320    0.0000 C    0  0  0  0  0  0  0  0  0  0  0  0
   26.8313  -11.2509    0.0000 C    0  0  0  0  0  0  0  0  0  0  0  0
   29.3310  -10.3293    0.0000 C    0  0  0  0  0  0  0  0  0  0  0  0
   27.0530   -9.9391    0.0000 C    0  0  0  0  0  0  0  0  0  0  0  0
   28.3029   -9.4781    0.0000 C    0  0  0  0  0  0  0  0  0  0  0  0
   23.4714  -11.7033    0.0000 Rh   0  0  0  0  0  0  0  0  0  0  0  0
   22.6211  -10.6837    0.0000 H    0  0  0  0  0  0  0  0  0  0  0  0
   24.4910  -10.8431    0.0000 C    0  0  0  0  0  0  0  0  0  0  0  0
   25.8027  -11.0739    0.0000 O    0  0  0  0  0  0  0  0  0  0  0  0
   24.3316  -12.7044    0.0000 P    0  0  0  0  0  0  0  0  0  0  0  0
   24.2516   -9.5314    0.0000 C    0  0  0  0  0  0  0  0  0  0  0  0
   25.2712   -8.6712    0.0000 C    0  0  0  0  0  0  0  0  0  0  0  0
   23.0018   -9.0789    0.0000 C    0  0  0  0  0  0  0  0  0  0  0  0
   25.0314   -7.3685    0.0000 C    0  0  0  0  0  0  0  0  0  0  0  0
   22.7805   -7.7762    0.0000 C    0  0  0  0  0  0  0  0  0  0  0  0
   23.7816   -6.9161    0.0000 C    0  0  0  0  0  0  0  0  0  0  0  0
   23.5423   -5.6043    0.0000 N    0  3  0  0  0  0  0  0  0  0  0  0
   22.3019   -5.1609    0.0000 O    0  5  0  0  0  0  0  0  0  0  0  0
   24.5618   -4.7441    0.0000 O    0  0  0  0  0  0  0  0  0  0  0  0
   20.9811  -13.1564    0.0000 B    0  0  0  0  0  0  0  0  0  0  0  0
   21.0078  -16.0553    0.0000 N    0  0  0  0  0  0  0  0  0  0  0  0
   19.9439  -16.8441    0.0000 C    0  0  0  0  0  0  0  0  0  0  0  0
   22.0978  -16.8265    0.0000 N    0  0  0  0  0  0  0  0  0  0  0  0
   20.3693  -18.1030    0.0000 C    0  0  0  0  0  0  0  0  0  0  0  0
   21.6991  -18.0940    0.0000 C    0  0  0  0  0  0  0  0  0  0  0  0
   20.5201  -11.9160    0.0000 N    0  0  0  0  0  0  0  0  0  0  0  0
   19.2346  -11.5611    0.0000 C    0  0  0  0  0  0  0  0  0  0  0  0
   21.2557  -10.8079    0.0000 N    0  0  0  0  0  0  0  0  0  0  0  0
   19.1813  -10.2317    0.0000 C    0  0  0  0  0  0  0  0  0  0  0  0
   20.4226   -9.7707    0.0000 C    0  0  0  0  0  0  0  0  0  0  0  0
   19.7312  -13.6174    0.0000 N    0  0  0  0  0  0  0  0  0  0  0  0
   19.3763  -14.8939    0.0000 C    0  0  0  0  0  0  0  0  0  0  0  0
   18.6232  -12.8818    0.0000 N    0  0  0  0  0  0  0  0  0  0  0  0
   18.0470  -14.9558    0.0000 C    0  0  0  0  0  0  0  0  0  0  0  0
   17.5860  -13.7059    0.0000 C    0  0  0  0  0  0  0  0  0  0  0  0
   20.7860   -8.4852    0.0000 C    0  0  0  0  0  0  0  0  0  0  0  0
   18.0732   -9.4957    0.0000 C    0  0  0  0  0  0  0  0  0  0  0  0
   16.3004  -13.3514    0.0000 C    0  0  0  0  0  0  0  0  0  0  0  0
   17.3110  -16.0638    0.0000 C    0  0  0  0  0  0  0  0  0  0  0  0
   22.4879  -19.1578    0.0000 C    0  0  0  0  0  0  0  0  0  0  0  0
   19.5980  -19.1935    0.0000 C    0  0  0  0  0  0  0  0  0  0  0  0
  1  2  1  0  0  0  0
  1  3  2  0  0  0  0
  2  4  2  0  0  0  0
  3  5  1  0  0  0  0
  4  6  1  0  0  0  0
  5  6  2  0  0  0  0
  7  8  1  0  0  0  0
  7  9  2  0  0  0  0
  8 10  2  0  0  0  0
  9 11  1  0  0  0  0
 10 12  1  0  0  0  0
 11 12  2  0  0  0  0
 13 14  1  0  0  0  0
 13 15  2  0  0  0  0
 14 16  2  0  0  0  0
 15 17  1  0  0  0  0
 16 18  1  0  0  0  0
 17 18  2  0  0  0  0
 19 20  1  0  0  0  0
 19 21  1  0  0  0  0
 21 22  2  0  0  0  0
 19 23  1  0  0  0  0
 15 23  1  0  0  0  0
  9 23  1  0  0  0  0
  5 23  1  0  0  0  0
 24 25  1  0  0  0  0
 24 26  2  0  0  0  0
 25 27  2  0  0  0  0
 26 28  1  0  0  0  0
 27 29  1  0  0  0  0
 28 29  2  0  0  0  0
 21 24  1  0  0  0  0
 30 31  1  0  0  0  0
 30 32  2  0  0  0  0
 29 30  1  0  0  0  0
 34 35  1  0  0  0  0
 34 36  1  0  0  0  0
 35 37  2  0  0  0  0
 36 38  2  0  0  0  0
 37 38  1  0  0  0  0
 33 34  1  0  0  0  0
 39 40  1  0  0  0  0
 39 41  1  0  0  0  0
 40 42  2  0  0  0  0
 41 43  2  0  0  0  0
 42 43  1  0  0  0  0
 33 39  1  0  0  0  0
 44 45  1  0  0  0  0
 44 46  1  0  0  0  0
 45 47  2  0  0  0  0
 46 48  2  0  0  0  0
 47 48  1  0  0  0  0
 33 44  1  0  0  0  0
 43 49  1  0  0  0  0
 42 50  1  0  0  0  0
 48 51  1  0  0  0  0
 47 52  1  0  0  0  0
 38 53  1  0  0  0  0
 37 54  1  0  0  0  0
 19 33  1  0  0  0  0
M  END
> <NMREDATA_VERSION>
1.1

> <NMREDATA_LEVEL>
0

> <NMREDATA_SOLVENT>
CD2Cl2

> <NMREDATA_TEMPERATURE>
300

> <NMREDATA_FORMULA>
C40H44BN7O3PRh

> <NMREDATA_SMILES>
Cc1nn(cc1C)[B]([RhH](P(c1ccccc1)(c1ccccc1)c1ccccc1)C(=O)c1ccc(cc1)N(=O)O)(n1nc(c(c1)C)C)n1nc(c(c1)C)C

> <NMREDATA_ASSIGNMENT>
Rh19, 1730.00, 19

> <NMREDATA_1D_103Rh>
1730.00, L=Rh19

$$$$

  ACD/LABS03212412532D

 57 63  0  0  0  0  0  0  0  0  2 V2000
   22.5502  -15.7270    0.0000 C    0  0  0  0  0  0  0  0  0  0  0  0
   21.2913  -15.2840    0.0000 C    0  0  0  0  0  0  0  0  0  0  0  0
   23.5513  -14.8763    0.0000 C    0  0  0  0  0  0  0  0  0  0  0  0
   21.0606  -13.9719    0.0000 C    0  0  0  0  0  0  0  0  0  0  0  0
   23.3210  -13.5641    0.0000 C    0  0  0  0  0  0  0  0  0  0  0  0
   22.0711  -13.1121    0.0000 C    0  0  0  0  0  0  0  0  0  0  0  0
   24.7393  -14.9738    0.0000 C    0  0  0  0  0  0  0  0  0  0  0  0
   25.5990  -15.9844    0.0000 C    0  0  0  0  0  0  0  0  0  0  0  0
   25.1913  -13.7240    0.0000 C    0  0  0  0  0  0  0  0  0  0  0  0
   26.9108  -15.7536    0.0000 C    0  0  0  0  0  0  0  0  0  0  0  0
   26.5030  -13.4846    0.0000 C    0  0  0  0  0  0  0  0  0  0  0  0
   27.3542  -14.5038    0.0000 C    0  0  0  0  0  0  0  0  0  0  0  0
   27.8595  -12.0925    0.0000 C    0  0  0  0  0  0  0  0  0  0  0  0
   29.1093  -11.6320    0.0000 C    0  0  0  0  0  0  0  0  0  0  0  0
   26.8313  -11.2509    0.0000 C    0  0  0  0  0  0  0  0  0  0  0  0
   29.3310  -10.3293    0.0000 C    0  0  0  0  0  0  0  0  0  0  0  0
   27.0530   -9.9391    0.0000 C    0  0  0  0  0  0  0  0  0  0  0  0
   28.3029   -9.4781    0.0000 C    0  0  0  0  0  0  0  0  0  0  0  0
   23.4714  -11.7033    0.0000 Rh   0  0  0  0  0  0  0  0  0  0  0  0
   22.6211  -10.6837    0.0000 H    0  0  0  0  0  0  0  0  0  0  0  0
   24.4910  -10.8431    0.0000 C    0  0  0  0  0  0  0  0  0  0  0  0
   25.8027  -11.0739    0.0000 O    0  0  0  0  0  0  0  0  0  0  0  0
   24.3316  -12.7044    0.0000 P    0  0  0  0  0  0  0  0  0  0  0  0
   24.2516   -9.5314    0.0000 C    0  0  0  0  0  0  0  0  0  0  0  0
   25.2712   -8.6712    0.0000 C    0  0  0  0  0  0  0  0  0  0  0  0
   23.0018   -9.0789    0.0000 C    0  0  0  0  0  0  0  0  0  0  0  0
   25.0314   -7.3685    0.0000 C    0  0  0  0  0  0  0  0  0  0  0  0
   22.7805   -7.7762    0.0000 C    0  0  0  0  0  0  0  0  0  0  0  0
   23.7816   -6.9161    0.0000 C    0  0  0  0  0  0  0  0  0  0  0  0
   23.5423   -5.6043    0.0000 N    0  3  0  0  0  0  0  0  0  0  0  0
   22.3019   -5.1609    0.0000 O    0  5  0  0  0  0  0  0  0  0  0  0
   24.5618   -4.7441    0.0000 O    0  0  0  0  0  0  0  0  0  0  0  0
   20.9811  -13.1564    0.0000 B    0  0  0  0  0  0  0  0  0  0  0  0
   21.0078  -16.0553    0.0000 N    0  0  0  0  0  0  0  0  0  0  0  0
   19.9439  -16.8441    0.0000 C    0  0  0  0  0  0  0  0  0  0  0  0
   22.0978  -16.8265    0.0000 N    0  0  0  0  0  0  0  0  0  0  0  0
   20.3693  -18.1030    0.0000 C    0  0  0  0  0  0  0  0  0  0  0  0
   21.6991  -18.0940    0.0000 C    0  0  0  0  0  0  0  0  0  0  0  0
   20.5201  -11.9160    0.0000 N    0  0  0  0  0  0  0  0  0  0  0  0
   19.2346  -11.5611    0.0000 C    0  0  0  0  0  0  0  0  0  0  0  0
   21.2557  -10.8079    0.0000 N    0  0  0  0  0  0  0  0  0  0  0  0
   19.1813  -10.2317    0.0000 C    0  0  0  0  0  0  0  0  0  0  0  0
   20.4226   -9.7707    0.0000 C    0  0  0  0  0  0  0  0  0  0  0  0
   19.7312  -13.6174    0.0000 N    0  0  0  0  0  0  0  0  0  0  0  0
   19.3763  -14.8939    0.0000 C    0  0  0  0  0  0  0  0  0  0  0  0
   18.6232  -12.8818    0.0000 N    0  0  0  0  0  0  0  0  0  0  0  0
   18.0470  -14.9558    0.0000 C    0  0  0  0  0  0  0  0  0  0  0  0
   17.5860  -13.7059    0.0000 C    0  0  0  0  0  0  0  0  0  0  0  0
   20.7860   -8.4852    0.0000 C    0  0  0  0  0  0  0  0  0  0  0  0
   18.0732   -9.4957    0.0000 C    0  0  0  0  0  0  0  0  0  0  0  0
   16.3004  -13.3514    0.0000 C    0  0  0  0  0  0  0  0  0  0  0  0
   17.3110  -16.0638    0.0000 C    0  0  0  0  0  0  0  0  0  0  0  0
   22.4879  -19.1578    0.0000 C    0  0  0  0  0  0  0  0  0  0  0  0
   19.5980  -19.1935    0.0000 C    0  0  0  0  0  0  0  0  0  0  0  0
   30.0933   -9.9990    0.0000 F    0  0  0  0  0  0  0  0  0  0  0  0
   27.4813  -17.0016    0.0000 F    0  0  0  0  0  0  0  0  0  0  0  0
   20.4788  -15.6075    0.0000 F    0  0  0  0  0  0  0  0  0  0  0  0
  1  2  1  0  0  0  0
  1  3  2  0  0  0  0
  2  4  2  0  0  0  0
  3  5  1  0  0  0  0
  4  6  1  0  0  0  0
  5  6  2  0  0  0  0
  7  8  1  0  0  0  0
  7  9  2  0  0  0  0
  8 10  2  0  0  0  0
  9 11  1  0  0  0  0
 10 12  1  0  0  0  0
 11 12  2  0  0  0  0
 13 14  1  0  0  0  0
 13 15  2  0  0  0  0
 14 16  2  0  0  0  0
 15 17  1  0  0  0  0
 16 18  1  0  0  0  0
 17 18  2  0  0  0  0
 19 20  1  0  0  0  0
 19 21  1  0  0  0  0
 21 22  2  0  0  0  0
 19 23  1  0  0  0  0
 15 23  1  0  0  0  0
  9 23  1  0  0  0  0
  5 23  1  0  0  0  0
 24 25  1  0  0  0  0
 24 26  2  0  0  0  0
 25 27  2  0  0  0  0
 26 28  1  0  0  0  0
 27 29  1  0  0  0  0
 28 29  2  0  0  0  0
 21 24  1  0  0  0  0
 30 31  1  0  0  0  0
 30 32  2  0  0  0  0
 29 30  1  0  0  0  0
 34 35  1  0  0  0  0
 34 36  1  0  0  0  0
 35 37  2  0  0  0  0
 36 38  2  0  0  0  0
 37 38  1  0  0  0  0
 33 34  1  0  0  0  0
 39 40  1  0  0  0  0
 39 41  1  0  0  0  0
 40 42  2  0  0  0  0
 41 43  2  0  0  0  0
 42 43  1  0  0  0  0
 33 39  1  0  0  0  0
 44 45  1  0  0  0  0
 44 46  1  0  0  0  0
 45 47  2  0  0  0  0
 46 48  2  0  0  0  0
 47 48  1  0  0  0  0
 33 44  1  0  0  0  0
 43 49  1  0  0  0  0
 42 50  1  0  0  0  0
 48 51  1  0  0  0  0
 47 52  1  0  0  0  0
 38 53  1  0  0  0  0
 37 54  1  0  0  0  0
 19 33  1  0  0  0  0
 16 55  1  0  0  0  0
 10 56  1  0  0  0  0
  2 57  1  0  0  0  0
M  END
> <NMREDATA_VERSION>
1.1

> <NMREDATA_LEVEL>
0

> <NMREDATA_SOLVENT>
CD2Cl2

> <NMREDATA_TEMPERATURE>
300

> <NMREDATA_FORMULA>
C40H41BF3N7O3PRh

> <NMREDATA_SMILES>
Fc1ccc(cc1)P([RhH]([B](n1nc(c(c1)C)C)(n1nc(c(c1)C)C)n1nc(c(c1)C)C)C(=O)c1ccc(cc1)N(=O)O)(c1ccc(cc1)F)c1ccc(cc1)F

> <NMREDATA_ASSIGNMENT>
Rh19, 1727.00, 19

> <NMREDATA_1D_103Rh>
1727.00, L=Rh19

$$$$

  ACD/LABS03212412542D

 31 33  0  0  0  0  0  0  0  0  1 V2000
   12.0001  -11.7667    0.0000 Rh   0  0  0  0  0  0  0  0  0  0  0  0
   12.0001  -13.0967    0.0000 I    0  0  0  0  0  0  0  0  0  0  0  0
   12.0001  -10.4458    0.0000 C    0  0  0  0  0  0  0  0  0  0  0  0
   13.0198   -9.5855    0.0000 O    0  0  0  0  0  0  0  0  0  0  0  0
   10.6875  -11.9882    0.0000 P    0  0  0  0  0  0  0  0  0  0  0  0
   14.8906  -11.7667    0.0000 B    0  0  0  0  0  0  0  0  0  0  0  0
   14.8906  -13.0967    0.0000 N    0  0  0  0  0  0  0  0  0  0  0  0
   13.8178  -13.8770    0.0000 C    0  0  0  0  0  0  0  0  0  0  0  0
   15.9636  -13.8770    0.0000 N    0  0  0  0  0  0  0  0  0  0  0  0
   14.2346  -15.1363    0.0000 C    0  0  0  0  0  0  0  0  0  0  0  0
   15.5556  -15.1363    0.0000 C    0  0  0  0  0  0  0  0  0  0  0  0
   16.2206  -11.7667    0.0000 N    0  0  0  0  0  0  0  0  0  0  0  0
   17.0008  -10.6940    0.0000 C    0  0  0  0  0  0  0  0  0  0  0  0
   17.0008  -12.8394    0.0000 N    0  0  0  0  0  0  0  0  0  0  0  0
   18.2601  -11.1017    0.0000 C    0  0  0  0  0  0  0  0  0  0  0  0
   18.2691  -12.4227    0.0000 C    0  0  0  0  0  0  0  0  0  0  0  0
   14.8906  -10.4458    0.0000 N    0  0  0  0  0  0  0  0  0  0  0  0
   15.9636   -9.6565    0.0000 C    0  0  0  0  0  0  0  0  0  0  0  0
   13.8178   -9.6565    0.0000 N    0  0  0  0  0  0  0  0  0  0  0  0
   15.5556   -8.3972    0.0000 C    0  0  0  0  0  0  0  0  0  0  0  0
   14.2346   -8.3972    0.0000 C    0  0  0  0  0  0  0  0  0  0  0  0
   19.3419  -13.2120    0.0000 C    0  0  0  0  0  0  0  0  0  0  0  0
   19.3419  -10.3215    0.0000 C    0  0  0  0  0  0  0  0  0  0  0  0
   13.4544   -7.3154    0.0000 C    0  0  0  0  0  0  0  0  0  0  0  0
   16.3358   -7.3154    0.0000 C    0  0  0  0  0  0  0  0  0  0  0  0
   16.3358  -16.2180    0.0000 C    0  0  0  0  0  0  0  0  0  0  0  0
   13.4544  -16.2180    0.0000 C    0  0  0  0  0  0  0  0  0  0  0  0
   10.4570  -10.6940    0.0000 C    0  0  0  0  0  0  0  0  0  0  0  0
   10.9180  -13.3007    0.0000 C    0  0  0  0  0  0  0  0  0  0  0  0
    9.3753  -12.2187    0.0000 C    0  0  0  0  0  0  0  0  0  0  0  0
   10.8470   -9.7804    0.0000 C    0  0  0  0  0  0  0  0  0  0  0  0
  1  2  1  0  0  0  0
  1  3  1  0  0  0  0
  3  4  2  0  0  0  0
  1  5  1  0  0  0  0
  7  8  1  0  0  0  0
  7  9  1  0  0  0  0
  8 10  2  0  0  0  0
  9 11  2  0  0  0  0
 10 11  1  0  0  0  0
  6  7  1  0  0  0  0
 12 13  1  0  0  0  0
 12 14  1  0  0  0  0
 13 15  2  0  0  0  0
 14 16  2  0  0  0  0
 15 16  1  0  0  0  0
  6 12  1  0  0  0  0
 17 18  1  0  0  0  0
 17 19  1  0  0  0  0
 18 20  2  0  0  0  0
 19 21  2  0  0  0  0
 20 21  1  0  0  0  0
  6 17  1  0  0  0  0
 16 22  1  0  0  0  0
 15 23  1  0  0  0  0
 21 24  1  0  0  0  0
 20 25  1  0  0  0  0
 11 26  1  0  0  0  0
 10 27  1  0  0  0  0
  1  6  1  0  0  0  0
  5 28  1  0  0  0  0
  5 29  1  0  0  0  0
  5 30  1  0  0  0  0
  3 31  1  0  0  0  0
M  END
> <NMREDATA_VERSION>
1.1

> <NMREDATA_LEVEL>
0

> <NMREDATA_SOLVENT>
CD2Cl2

> <NMREDATA_TEMPERATURE>
233

> <NMREDATA_FORMULA>
C20H34BIN6OPRh

> <NMREDATA_SMILES>
Cc1nn(cc1C)[B]([Rh](P(C)(C)C)(C(=O)C)I)(n1nc(c(c1)C)C)n1nc(c(c1)C)C

> <NMREDATA_ASSIGNMENT>
Rh1, 2945.00, 1

> <NMREDATA_1D_103Rh>
2945.00, L=Rh1

$$$$

  ACD/LABS03222418042D

 17 17  0  0  0  0  0  0  0  0  1 V2000
   15.8198   -7.3551    0.0000 Rh   0  0  0  0  0  0  0  0  0  0  0  0
   17.1498   -7.3551    0.0000 C    0  0  0  0  0  0  0  0  0  0  0  0
   17.8148   -6.2032    0.0000 C    0  0  0  0  0  0  0  0  0  0  0  0
   17.8148   -8.5069    0.0000 C    0  0  0  0  0  0  0  0  0  0  0  0
   19.1448   -6.2032    0.0000 C    0  0  0  0  0  0  0  0  0  0  0  0
   19.1448   -8.5069    0.0000 C    0  0  0  0  0  0  0  0  0  0  0  0
   19.8098   -7.3551    0.0000 C    0  0  0  0  0  0  0  0  0  0  0  0
   17.1498   -5.0514    0.0000 C    0  0  0  0  0  0  0  0  0  0  0  0
   17.8148   -3.8996    0.0000 N    0  0  0  0  0  0  0  0  0  0  0  0
   17.1498   -2.7478    0.0000 C    0  0  0  0  0  0  0  0  0  0  0  0
   19.1448   -3.8996    0.0000 C    0  0  0  0  0  0  0  0  0  0  0  0
   17.1498   -9.6587    0.0000 C    0  0  0  0  0  0  0  0  0  0  0  0
   17.8148  -10.8105    0.0000 N    0  0  0  0  0  0  0  0  0  0  0  0
   19.1448  -10.8105    0.0000 C    0  0  0  0  0  0  0  0  0  0  0  0
   17.1498  -11.9623    0.0000 C    0  0  0  0  0  0  0  0  0  0  0  0
   15.1548   -6.2032    0.0000 C    0  0  0  0  0  0  0  0  0  0  0  0
   15.1548   -8.5069    0.0000 Cl   0  0  0  0  0  0  0  0  0  0  0  0
  2  3  1  0  0  0  0
  2  4  2  0  0  0  0
  3  5  2  0  0  0  0
  4  6  1  0  0  0  0
  5  7  1  0  0  0  0
  6  7  2  0  0  0  0
  1  2  1  0  0  0  0
  3  8  1  0  0  0  0
  8  9  1  0  0  0  0
  9 10  1  0  0  0  0
  9 11  1  0  0  0  0
  4 12  1  0  0  0  0
 12 13  1  0  0  0  0
 13 14  1  0  0  0  0
 13 15  1  0  0  0  0
  1 16  1  0  0  0  0
  1 17  1  0  0  0  0
M  END
> <NMREDATA_VERSION>
1.1

> <NMREDATA_LEVEL>
0

> <NMREDATA_SOLVENT>
C6D6

> <NMREDATA_TEMPERATURE>
295

> <NMREDATA_FORMULA>
C13H22ClN2Rh

> <NMREDATA_SMILES>
CN(Cc1cccc(c1[Rh](Cl)C)CN(C)C)C

> <NMREDATA_ASSIGNMENT>
Rh1, 3165.00, 1

> <NMREDATA_1D_103Rh>
3165.00, L=Rh1

$$$$

  ACD/LABS03222418042D

 18 18  0  0  0  0  0  0  0  0  1 V2000
   15.8198   -7.3551    0.0000 Rh   0  0  0  0  0  0  0  0  0  0  0  0
   17.1498   -7.3551    0.0000 C    0  0  0  0  0  0  0  0  0  0  0  0
   17.8148   -6.2032    0.0000 C    0  0  0  0  0  0  0  0  0  0  0  0
   17.8148   -8.5069    0.0000 C    0  0  0  0  0  0  0  0  0  0  0  0
   19.1448   -6.2032    0.0000 C    0  0  0  0  0  0  0  0  0  0  0  0
   19.1448   -8.5069    0.0000 C    0  0  0  0  0  0  0  0  0  0  0  0
   19.8098   -7.3551    0.0000 C    0  0  0  0  0  0  0  0  0  0  0  0
   17.1498   -5.0514    0.0000 C    0  0  0  0  0  0  0  0  0  0  0  0
   17.8148   -3.8996    0.0000 N    0  0  0  0  0  0  0  0  0  0  0  0
   17.1498   -2.7478    0.0000 C    0  0  0  0  0  0  0  0  0  0  0  0
   19.1448   -3.8996    0.0000 C    0  0  0  0  0  0  0  0  0  0  0  0
   17.1498   -9.6587    0.0000 C    0  0  0  0  0  0  0  0  0  0  0  0
   17.8148  -10.8105    0.0000 N    0  0  0  0  0  0  0  0  0  0  0  0
   19.1448  -10.8105    0.0000 C    0  0  0  0  0  0  0  0  0  0  0  0
   17.1498  -11.9623    0.0000 C    0  0  0  0  0  0  0  0  0  0  0  0
   15.1548   -6.2032    0.0000 C    0  0  0  0  0  0  0  0  0  0  0  0
   15.1548   -8.5069    0.0000 Cl   0  0  0  0  0  0  0  0  0  0  0  0
   15.8198   -5.0514    0.0000 C    0  0  0  0  0  0  0  0  0  0  0  0
  2  3  1  0  0  0  0
  2  4  2  0  0  0  0
  3  5  2  0  0  0  0
  4  6  1  0  0  0  0
  5  7  1  0  0  0  0
  6  7  2  0  0  0  0
  1  2  1  0  0  0  0
  3  8  1  0  0  0  0
  8  9  1  0  0  0  0
  9 10  1  0  0  0  0
  9 11  1  0  0  0  0
  4 12  1  0  0  0  0
 12 13  1  0  0  0  0
 13 14  1  0  0  0  0
 13 15  1  0  0  0  0
  1 16  1  0  0  0  0
  1 17  1  0  0  0  0
 16 18  1  0  0  0  0
M  END
> <NMREDATA_VERSION>
1.1

> <NMREDATA_LEVEL>
0

> <NMREDATA_SOLVENT>
C6D6

> <NMREDATA_TEMPERATURE>
295

> <NMREDATA_FORMULA>
C14H24ClN2Rh

> <NMREDATA_SMILES>
CC[Rh](c1c(cccc1CN(C)C)CN(C)C)Cl

> <NMREDATA_ASSIGNMENT>
Rh1, 3163.00, 1

> <NMREDATA_1D_103Rh>
3163.00, L=Rh1

$$$$

  ACD/LABS03222418052D

 17 17  0  0  0  0  0  0  0  0  1 V2000
   15.8198   -7.3551    0.0000 Rh   0  0  0  0  0  0  0  0  0  0  0  0
   17.1498   -7.3551    0.0000 C    0  0  0  0  0  0  0  0  0  0  0  0
   17.8148   -6.2032    0.0000 C    0  0  0  0  0  0  0  0  0  0  0  0
   17.8148   -8.5069    0.0000 C    0  0  0  0  0  0  0  0  0  0  0  0
   19.1448   -6.2032    0.0000 C    0  0  0  0  0  0  0  0  0  0  0  0
   19.1448   -8.5069    0.0000 C    0  0  0  0  0  0  0  0  0  0  0  0
   19.8098   -7.3551    0.0000 C    0  0  0  0  0  0  0  0  0  0  0  0
   17.1498   -5.0514    0.0000 C    0  0  0  0  0  0  0  0  0  0  0  0
   17.8148   -3.8996    0.0000 N    0  0  0  0  0  0  0  0  0  0  0  0
   17.1498   -2.7478    0.0000 C    0  0  0  0  0  0  0  0  0  0  0  0
   19.1448   -3.8996    0.0000 C    0  0  0  0  0  0  0  0  0  0  0  0
   17.1498   -9.6587    0.0000 C    0  0  0  0  0  0  0  0  0  0  0  0
   17.8148  -10.8105    0.0000 N    0  0  0  0  0  0  0  0  0  0  0  0
   19.1448  -10.8105    0.0000 C    0  0  0  0  0  0  0  0  0  0  0  0
   17.1498  -11.9623    0.0000 C    0  0  0  0  0  0  0  0  0  0  0  0
   15.1548   -6.2032    0.0000 C    0  0  0  0  0  0  0  0  0  0  0  0
   15.1548   -8.5069    0.0000 I    0  0  0  0  0  0  0  0  0  0  0  0
  2  3  1  0  0  0  0
  2  4  2  0  0  0  0
  3  5  2  0  0  0  0
  4  6  1  0  0  0  0
  5  7  1  0  0  0  0
  6  7  2  0  0  0  0
  1  2  1  0  0  0  0
  3  8  1  0  0  0  0
  8  9  1  0  0  0  0
  9 10  1  0  0  0  0
  9 11  1  0  0  0  0
  4 12  1  0  0  0  0
 12 13  1  0  0  0  0
 13 14  1  0  0  0  0
 13 15  1  0  0  0  0
  1 16  1  0  0  0  0
  1 17  1  0  0  0  0
M  END
> <NMREDATA_VERSION>
1.1

> <NMREDATA_LEVEL>
0

> <NMREDATA_SOLVENT>
C6D6

> <NMREDATA_TEMPERATURE>
295

> <NMREDATA_FORMULA>
C13H22IN2Rh

> <NMREDATA_SMILES>
CN(Cc1cccc(c1[Rh](I)C)CN(C)C)C

> <NMREDATA_ASSIGNMENT>
Rh1, 3179.00, 1

> <NMREDATA_1D_103Rh>
3179.00, L=Rh1

$$$$

  ACD/LABS03222418052D

 18 18  0  0  0  0  0  0  0  0  1 V2000
   15.8198   -7.3551    0.0000 Rh   0  0  0  0  0  0  0  0  0  0  0  0
   17.1498   -7.3551    0.0000 C    0  0  0  0  0  0  0  0  0  0  0  0
   17.8148   -6.2032    0.0000 C    0  0  0  0  0  0  0  0  0  0  0  0
   17.8148   -8.5069    0.0000 C    0  0  0  0  0  0  0  0  0  0  0  0
   19.1448   -6.2032    0.0000 C    0  0  0  0  0  0  0  0  0  0  0  0
   19.1448   -8.5069    0.0000 C    0  0  0  0  0  0  0  0  0  0  0  0
   19.8098   -7.3551    0.0000 C    0  0  0  0  0  0  0  0  0  0  0  0
   17.1498   -5.0514    0.0000 C    0  0  0  0  0  0  0  0  0  0  0  0
   17.8148   -3.8996    0.0000 N    0  0  0  0  0  0  0  0  0  0  0  0
   17.1498   -2.7478    0.0000 C    0  0  0  0  0  0  0  0  0  0  0  0
   19.1448   -3.8996    0.0000 C    0  0  0  0  0  0  0  0  0  0  0  0
   17.1498   -9.6587    0.0000 C    0  0  0  0  0  0  0  0  0  0  0  0
   17.8148  -10.8105    0.0000 N    0  0  0  0  0  0  0  0  0  0  0  0
   19.1448  -10.8105    0.0000 C    0  0  0  0  0  0  0  0  0  0  0  0
   17.1498  -11.9623    0.0000 C    0  0  0  0  0  0  0  0  0  0  0  0
   15.1548   -6.2032    0.0000 C    0  0  0  0  0  0  0  0  0  0  0  0
   15.1548   -8.5069    0.0000 I    0  0  0  0  0  0  0  0  0  0  0  0
   15.8198   -5.0514    0.0000 C    0  0  0  0  0  0  0  0  0  0  0  0
  2  3  1  0  0  0  0
  2  4  2  0  0  0  0
  3  5  2  0  0  0  0
  4  6  1  0  0  0  0
  5  7  1  0  0  0  0
  6  7  2  0  0  0  0
  1  2  1  0  0  0  0
  3  8  1  0  0  0  0
  8  9  1  0  0  0  0
  9 10  1  0  0  0  0
  9 11  1  0  0  0  0
  4 12  1  0  0  0  0
 12 13  1  0  0  0  0
 13 14  1  0  0  0  0
 13 15  1  0  0  0  0
  1 16  1  0  0  0  0
  1 17  1  0  0  0  0
 16 18  1  0  0  0  0
M  END
> <NMREDATA_VERSION>
1.1

> <NMREDATA_LEVEL>
0

> <NMREDATA_SOLVENT>
C6D6

> <NMREDATA_TEMPERATURE>
295

> <NMREDATA_FORMULA>
C14H24IN2Rh

> <NMREDATA_SMILES>
CC[Rh](c1c(cccc1CN(C)C)CN(C)C)I

> <NMREDATA_ASSIGNMENT>
Rh1, 3201.00, 1

> <NMREDATA_1D_103Rh>
3201.00, L=Rh1

$$$$

  ACD/LABS03222418172D

 24 25  0  0  0  0  0  0  0  0  1 V2000
   23.1143  -10.2050    0.0000 C    0  0  0  0  0  0  0  0  0  0  0  0
   23.1139   -8.8741    0.0000 C    0  0  0  0  0  0  0  0  0  0  0  0
   21.9625  -10.8700    0.0000 C    0  0  0  0  0  0  0  0  0  0  0  0
   21.9706   -8.2242    0.0000 C    0  0  0  0  0  0  0  0  0  0  0  0
   20.8181  -10.1996    0.0000 C    0  0  0  0  0  0  0  0  0  0  0  0
   20.8188   -8.8892    0.0000 C    0  0  0  0  0  0  0  0  0  0  0  0
   15.0684  -12.2092    0.0000 C    0  0  0  0  0  0  0  0  0  0  0  0
   13.9166  -12.8742    0.0000 C    0  0  0  0  0  0  0  0  0  0  0  0
   16.2114  -12.8593    0.0000 C    0  0  0  0  0  0  0  0  0  0  0  0
   13.9155  -14.1848    0.0000 C    0  0  0  0  0  0  0  0  0  0  0  0
   16.2198  -14.1855    0.0000 C    0  0  0  0  0  0  0  0  0  0  0  0
   15.0680  -14.8505    0.0000 C    0  0  0  0  0  0  0  0  0  0  0  0
   18.5147  -11.5294    0.0000 Rh   0  0  0  0  0  0  0  0  0  0  0  0
   19.6669  -12.1953    0.0000 C    0  0  0  0  0  0  0  0  0  0  0  0
   18.5155  -10.2190    0.0000 Cl   0  0  0  0  0  0  0  0  0  0  0  0
   18.5231  -12.8557    0.0000 Cl   0  0  0  0  0  0  0  0  0  0  0  0
   19.6663  -10.8646    0.0000 P    0  0  0  0  0  0  0  0  0  0  0  0
   17.3632  -12.1943    0.0000 P    0  0  0  0  0  0  0  0  0  0  0  0
   19.2114   -9.6333    0.0000 C    0  0  0  0  0  0  0  0  0  0  0  0
   20.5145  -11.8903    0.0000 C    0  0  0  0  0  0  0  0  0  0  0  0
   17.8274  -13.4417    0.0000 C    0  0  0  0  0  0  0  0  0  0  0  0
   16.7029  -11.0505    0.0000 C    0  0  0  0  0  0  0  0  0  0  0  0
   17.5074  -10.6888    0.0000 C    0  0  0  0  0  0  0  0  0  0  0  0
   16.4829   -9.8364    0.0000 O    0  0  0  0  0  0  0  0  0  0  0  0
  1  2  1  0  0  0  0
  1  3  2  0  0  0  0
  2  4  2  0  0  0  0
  3  5  1  0  0  0  0
  4  6  1  0  0  0  0
  5  6  2  0  0  0  0
  7  8  1  0  0  0  0
  7  9  2  0  0  0  0
  8 10  2  0  0  0  0
  9 11  1  0  0  0  0
 10 12  1  0  0  0  0
 11 12  2  0  0  0  0
 13 14  1  0  0  0  0
 13 15  1  0  0  0  0
 13 16  1  0  0  0  0
 13 17  1  0  0  0  0
 13 18  1  0  0  0  0
 17 19  1  0  0  0  0
 17 20  1  0  0  0  0
 18 21  1  0  0  0  0
 18 22  1  0  0  0  0
  9 18  1  0  0  0  0
  5 17  1  0  0  0  0
 13 23  1  0  0  0  0
 23 24  3  0  0  0  0
M  END
> <NMREDATA_VERSION>
1.1

> <NMREDATA_LEVEL>
0

> <NMREDATA_SOLVENT>
C6D6

> <NMREDATA_TEMPERATURE>
297

> <NMREDATA_FORMULA>
C18H27Cl2OP2Rh

> <NMREDATA_SMILES>
[O]#C[Rh](P(c1ccccc1)(C)C)(P(c1ccccc1)(C)C)(Cl)(Cl)C

> <NMREDATA_ASSIGNMENT>
Rh13, 499.00, 13

> <NMREDATA_1D_103Rh>
499.00, L=Rh13

$$$$

  ACD/LABS03222418502D

 24 25  0  0  0  0  0  0  0  0  1 V2000
   23.1143  -10.2050    0.0000 C    0  0  0  0  0  0  0  0  0  0  0  0
   23.1139   -8.8741    0.0000 C    0  0  0  0  0  0  0  0  0  0  0  0
   21.9625  -10.8700    0.0000 C    0  0  0  0  0  0  0  0  0  0  0  0
   21.9706   -8.2242    0.0000 C    0  0  0  0  0  0  0  0  0  0  0  0
   20.8181  -10.1996    0.0000 C    0  0  0  0  0  0  0  0  0  0  0  0
   20.8188   -8.8892    0.0000 C    0  0  0  0  0  0  0  0  0  0  0  0
   15.0684  -12.2092    0.0000 C    0  0  0  0  0  0  0  0  0  0  0  0
   13.9166  -12.8742    0.0000 C    0  0  0  0  0  0  0  0  0  0  0  0
   16.2114  -12.8593    0.0000 C    0  0  0  0  0  0  0  0  0  0  0  0
   13.9155  -14.1848    0.0000 C    0  0  0  0  0  0  0  0  0  0  0  0
   16.2198  -14.1855    0.0000 C    0  0  0  0  0  0  0  0  0  0  0  0
   15.0680  -14.8505    0.0000 C    0  0  0  0  0  0  0  0  0  0  0  0
   18.5147  -11.5294    0.0000 Rh   0  0  0  0  0  0  0  0  0  0  0  0
   19.6669  -12.1953    0.0000 C    0  0  0  0  0  0  0  0  0  0  0  0
   18.5155  -10.2190    0.0000 Cl   0  0  0  0  0  0  0  0  0  0  0  0
   18.5231  -12.8557    0.0000 I    0  0  0  0  0  0  0  0  0  0  0  0
   19.6663  -10.8646    0.0000 P    0  0  0  0  0  0  0  0  0  0  0  0
   17.3632  -12.1943    0.0000 P    0  0  0  0  0  0  0  0  0  0  0  0
   19.2114   -9.6333    0.0000 C    0  0  0  0  0  0  0  0  0  0  0  0
   20.5145  -11.8903    0.0000 C    0  0  0  0  0  0  0  0  0  0  0  0
   17.8274  -13.4417    0.0000 C    0  0  0  0  0  0  0  0  0  0  0  0
   16.7029  -11.0505    0.0000 C    0  0  0  0  0  0  0  0  0  0  0  0
   17.5074  -10.6888    0.0000 C    0  0  0  0  0  0  0  0  0  0  0  0
   16.4829   -9.8364    0.0000 O    0  0  0  0  0  0  0  0  0  0  0  0
  1  2  1  0  0  0  0
  1  3  2  0  0  0  0
  2  4  2  0  0  0  0
  3  5  1  0  0  0  0
  4  6  1  0  0  0  0
  5  6  2  0  0  0  0
  7  8  1  0  0  0  0
  7  9  2  0  0  0  0
  8 10  2  0  0  0  0
  9 11  1  0  0  0  0
 10 12  1  0  0  0  0
 11 12  2  0  0  0  0
 13 14  1  0  0  0  0
 13 15  1  0  0  0  0
 13 16  1  0  0  0  0
 13 17  1  0  0  0  0
 13 18  1  0  0  0  0
 17 19  1  0  0  0  0
 17 20  1  0  0  0  0
 18 21  1  0  0  0  0
 18 22  1  0  0  0  0
  9 18  1  0  0  0  0
  5 17  1  0  0  0  0
 13 23  1  0  0  0  0
 23 24  3  0  0  0  0
M  END
> <NMREDATA_VERSION>
1.1

> <NMREDATA_LEVEL>
0

> <NMREDATA_SOLVENT>
C6D6

> <NMREDATA_TEMPERATURE>
297

> <NMREDATA_FORMULA>
C18H27ClIOP2Rh

> <NMREDATA_SMILES>
[O]#C[Rh](P(c1ccccc1)(C)C)(P(c1ccccc1)(C)C)(I)(Cl)C

> <NMREDATA_ASSIGNMENT>
Rh13, 194.00, 13

> <NMREDATA_1D_103Rh>
194.00, L=Rh13

$$$$

  ACD/LABS03222418512D

 24 25  0  0  0  0  0  0  0  0  1 V2000
   23.1143  -10.2050    0.0000 C    0  0  0  0  0  0  0  0  0  0  0  0
   23.1139   -8.8741    0.0000 C    0  0  0  0  0  0  0  0  0  0  0  0
   21.9625  -10.8700    0.0000 C    0  0  0  0  0  0  0  0  0  0  0  0
   21.9706   -8.2242    0.0000 C    0  0  0  0  0  0  0  0  0  0  0  0
   20.8181  -10.1996    0.0000 C    0  0  0  0  0  0  0  0  0  0  0  0
   20.8188   -8.8892    0.0000 C    0  0  0  0  0  0  0  0  0  0  0  0
   15.0684  -12.2092    0.0000 C    0  0  0  0  0  0  0  0  0  0  0  0
   13.9166  -12.8742    0.0000 C    0  0  0  0  0  0  0  0  0  0  0  0
   16.2114  -12.8593    0.0000 C    0  0  0  0  0  0  0  0  0  0  0  0
   13.9155  -14.1848    0.0000 C    0  0  0  0  0  0  0  0  0  0  0  0
   16.2198  -14.1855    0.0000 C    0  0  0  0  0  0  0  0  0  0  0  0
   15.0680  -14.8505    0.0000 C    0  0  0  0  0  0  0  0  0  0  0  0
   18.5147  -11.5294    0.0000 Rh   0  0  0  0  0  0  0  0  0  0  0  0
   19.6669  -12.1953    0.0000 C    0  0  0  0  0  0  0  0  0  0  0  0
   18.5155  -10.2190    0.0000 Br   0  0  0  0  0  0  0  0  0  0  0  0
   18.5231  -12.8557    0.0000 Br   0  0  0  0  0  0  0  0  0  0  0  0
   19.6663  -10.8646    0.0000 P    0  0  0  0  0  0  0  0  0  0  0  0
   17.3632  -12.1943    0.0000 P    0  0  0  0  0  0  0  0  0  0  0  0
   19.2114   -9.6333    0.0000 C    0  0  0  0  0  0  0  0  0  0  0  0
   20.5145  -11.8903    0.0000 C    0  0  0  0  0  0  0  0  0  0  0  0
   17.8274  -13.4417    0.0000 C    0  0  0  0  0  0  0  0  0  0  0  0
   16.7029  -11.0505    0.0000 C    0  0  0  0  0  0  0  0  0  0  0  0
   17.5074  -10.6888    0.0000 C    0  0  0  0  0  0  0  0  0  0  0  0
   16.4829   -9.8364    0.0000 O    0  0  0  0  0  0  0  0  0  0  0  0
  1  2  1  0  0  0  0
  1  3  2  0  0  0  0
  2  4  2  0  0  0  0
  3  5  1  0  0  0  0
  4  6  1  0  0  0  0
  5  6  2  0  0  0  0
  7  8  1  0  0  0  0
  7  9  2  0  0  0  0
  8 10  2  0  0  0  0
  9 11  1  0  0  0  0
 10 12  1  0  0  0  0
 11 12  2  0  0  0  0
 13 14  1  0  0  0  0
 13 15  1  0  0  0  0
 13 16  1  0  0  0  0
 13 17  1  0  0  0  0
 13 18  1  0  0  0  0
 17 19  1  0  0  0  0
 17 20  1  0  0  0  0
 18 21  1  0  0  0  0
 18 22  1  0  0  0  0
  9 18  1  0  0  0  0
  5 17  1  0  0  0  0
 13 23  1  0  0  0  0
 23 24  3  0  0  0  0
M  END
> <NMREDATA_VERSION>
1.1

> <NMREDATA_LEVEL>
0

> <NMREDATA_SOLVENT>
C6D6

> <NMREDATA_TEMPERATURE>
297

> <NMREDATA_FORMULA>
C18H27Br2OP2Rh

> <NMREDATA_SMILES>
[O]#C[Rh](P(c1ccccc1)(C)C)(P(c1ccccc1)(C)C)(Br)(Br)C

> <NMREDATA_ASSIGNMENT>
Rh13, 351.00, 13

> <NMREDATA_1D_103Rh>
351.00, L=Rh13

$$$$

  ACD/LABS03222418512D

 24 25  0  0  0  0  0  0  0  0  1 V2000
   23.1143  -10.2050    0.0000 C    0  0  0  0  0  0  0  0  0  0  0  0
   23.1139   -8.8741    0.0000 C    0  0  0  0  0  0  0  0  0  0  0  0
   21.9625  -10.8700    0.0000 C    0  0  0  0  0  0  0  0  0  0  0  0
   21.9706   -8.2242    0.0000 C    0  0  0  0  0  0  0  0  0  0  0  0
   20.8181  -10.1996    0.0000 C    0  0  0  0  0  0  0  0  0  0  0  0
   20.8188   -8.8892    0.0000 C    0  0  0  0  0  0  0  0  0  0  0  0
   15.0684  -12.2092    0.0000 C    0  0  0  0  0  0  0  0  0  0  0  0
   13.9166  -12.8742    0.0000 C    0  0  0  0  0  0  0  0  0  0  0  0
   16.2114  -12.8593    0.0000 C    0  0  0  0  0  0  0  0  0  0  0  0
   13.9155  -14.1848    0.0000 C    0  0  0  0  0  0  0  0  0  0  0  0
   16.2198  -14.1855    0.0000 C    0  0  0  0  0  0  0  0  0  0  0  0
   15.0680  -14.8505    0.0000 C    0  0  0  0  0  0  0  0  0  0  0  0
   18.5147  -11.5294    0.0000 Rh   0  0  0  0  0  0  0  0  0  0  0  0
   19.6669  -12.1953    0.0000 C    0  0  0  0  0  0  0  0  0  0  0  0
   18.5155  -10.2190    0.0000 Br   0  0  0  0  0  0  0  0  0  0  0  0
   18.5231  -12.8557    0.0000 I    0  0  0  0  0  0  0  0  0  0  0  0
   19.6663  -10.8646    0.0000 P    0  0  0  0  0  0  0  0  0  0  0  0
   17.3632  -12.1943    0.0000 P    0  0  0  0  0  0  0  0  0  0  0  0
   19.2114   -9.6333    0.0000 C    0  0  0  0  0  0  0  0  0  0  0  0
   20.5145  -11.8903    0.0000 C    0  0  0  0  0  0  0  0  0  0  0  0
   17.8274  -13.4417    0.0000 C    0  0  0  0  0  0  0  0  0  0  0  0
   16.7029  -11.0505    0.0000 C    0  0  0  0  0  0  0  0  0  0  0  0
   17.5074  -10.6888    0.0000 C    0  0  0  0  0  0  0  0  0  0  0  0
   16.4829   -9.8364    0.0000 O    0  0  0  0  0  0  0  0  0  0  0  0
  1  2  1  0  0  0  0
  1  3  2  0  0  0  0
  2  4  2  0  0  0  0
  3  5  1  0  0  0  0
  4  6  1  0  0  0  0
  5  6  2  0  0  0  0
  7  8  1  0  0  0  0
  7  9  2  0  0  0  0
  8 10  2  0  0  0  0
  9 11  1  0  0  0  0
 10 12  1  0  0  0  0
 11 12  2  0  0  0  0
 13 14  1  0  0  0  0
 13 15  1  0  0  0  0
 13 16  1  0  0  0  0
 13 17  1  0  0  0  0
 13 18  1  0  0  0  0
 17 19  1  0  0  0  0
 17 20  1  0  0  0  0
 18 21  1  0  0  0  0
 18 22  1  0  0  0  0
  9 18  1  0  0  0  0
  5 17  1  0  0  0  0
 13 23  1  0  0  0  0
 23 24  3  0  0  0  0
M  END
> <NMREDATA_VERSION>
1.1

> <NMREDATA_LEVEL>
0

> <NMREDATA_SOLVENT>
C6D6

> <NMREDATA_TEMPERATURE>
297

> <NMREDATA_FORMULA>
C18H27BrIOP2Rh

> <NMREDATA_SMILES>
[O]#C[Rh](P(c1ccccc1)(C)C)(P(c1ccccc1)(C)C)(I)(Br)C

> <NMREDATA_ASSIGNMENT>
Rh13, 267.00, 13

> <NMREDATA_1D_103Rh>
267.00, L=Rh13

$$$$

  ACD/LABS03222418512D

 24 25  0  0  0  0  0  0  0  0  1 V2000
   23.1143  -10.2050    0.0000 C    0  0  0  0  0  0  0  0  0  0  0  0
   23.1139   -8.8741    0.0000 C    0  0  0  0  0  0  0  0  0  0  0  0
   21.9625  -10.8700    0.0000 C    0  0  0  0  0  0  0  0  0  0  0  0
   21.9706   -8.2242    0.0000 C    0  0  0  0  0  0  0  0  0  0  0  0
   20.8181  -10.1996    0.0000 C    0  0  0  0  0  0  0  0  0  0  0  0
   20.8188   -8.8892    0.0000 C    0  0  0  0  0  0  0  0  0  0  0  0
   15.0684  -12.2092    0.0000 C    0  0  0  0  0  0  0  0  0  0  0  0
   13.9166  -12.8742    0.0000 C    0  0  0  0  0  0  0  0  0  0  0  0
   16.2114  -12.8593    0.0000 C    0  0  0  0  0  0  0  0  0  0  0  0
   13.9155  -14.1848    0.0000 C    0  0  0  0  0  0  0  0  0  0  0  0
   16.2198  -14.1855    0.0000 C    0  0  0  0  0  0  0  0  0  0  0  0
   15.0680  -14.8505    0.0000 C    0  0  0  0  0  0  0  0  0  0  0  0
   18.5147  -11.5294    0.0000 Rh   0  0  0  0  0  0  0  0  0  0  0  0
   19.6669  -12.1953    0.0000 C    0  0  0  0  0  0  0  0  0  0  0  0
   18.5155  -10.2190    0.0000 I    0  0  0  0  0  0  0  0  0  0  0  0
   18.5231  -12.8557    0.0000 I    0  0  0  0  0  0  0  0  0  0  0  0
   19.6663  -10.8646    0.0000 P    0  0  0  0  0  0  0  0  0  0  0  0
   17.3632  -12.1943    0.0000 P    0  0  0  0  0  0  0  0  0  0  0  0
   19.2114   -9.6333    0.0000 C    0  0  0  0  0  0  0  0  0  0  0  0
   20.5145  -11.8903    0.0000 C    0  0  0  0  0  0  0  0  0  0  0  0
   17.8274  -13.4417    0.0000 C    0  0  0  0  0  0  0  0  0  0  0  0
   16.7029  -11.0505    0.0000 C    0  0  0  0  0  0  0  0  0  0  0  0
   17.5074  -10.6888    0.0000 C    0  0  0  0  0  0  0  0  0  0  0  0
   16.4829   -9.8364    0.0000 O    0  0  0  0  0  0  0  0  0  0  0  0
  1  2  1  0  0  0  0
  1  3  2  0  0  0  0
  2  4  2  0  0  0  0
  3  5  1  0  0  0  0
  4  6  1  0  0  0  0
  5  6  2  0  0  0  0
  7  8  1  0  0  0  0
  7  9  2  0  0  0  0
  8 10  2  0  0  0  0
  9 11  1  0  0  0  0
 10 12  1  0  0  0  0
 11 12  2  0  0  0  0
 13 14  1  0  0  0  0
 13 15  1  0  0  0  0
 13 16  1  0  0  0  0
 13 17  1  0  0  0  0
 13 18  1  0  0  0  0
 17 19  1  0  0  0  0
 17 20  1  0  0  0  0
 18 21  1  0  0  0  0
 18 22  1  0  0  0  0
  9 18  1  0  0  0  0
  5 17  1  0  0  0  0
 13 23  1  0  0  0  0
 23 24  3  0  0  0  0
M  END
> <NMREDATA_VERSION>
1.1

> <NMREDATA_LEVEL>
0

> <NMREDATA_SOLVENT>
C6D6

> <NMREDATA_TEMPERATURE>
297

> <NMREDATA_FORMULA>
C18H27I2OP2Rh

> <NMREDATA_SMILES>
[O]#C[Rh](P(c1ccccc1)(C)C)(P(c1ccccc1)(C)C)(I)(I)C

> <NMREDATA_ASSIGNMENT>
Rh13, 53.00, 13

> <NMREDATA_1D_103Rh>
53.00, L=Rh13

$$$$

  ACD/LABS03222419082D

 32 33  0  0  0  0  0  0  0  0  2 V2000
   14.4760   -7.9192    0.0000 B    0  0  0  0  0  0  0  0  0  0  0  0
   15.5673   -8.6736    0.0000 N    0  0  0  0  0  0  0  0  0  0  0  0
   15.6119  -10.0050    0.0000 C    0  0  0  0  0  0  0  0  0  0  0  0
   16.8189   -8.2209    0.0000 N    0  0  0  0  0  0  0  0  0  0  0  0
   16.8898  -10.3689    0.0000 C    0  0  0  0  0  0  0  0  0  0  0  0
   17.6355   -9.2683    0.0000 C    0  0  0  0  0  0  0  0  0  0  0  0
   14.0233   -6.6769    0.0000 N    0  0  0  0  0  0  0  0  0  0  0  0
   12.7451   -6.3041    0.0000 C    0  0  0  0  0  0  0  0  0  0  0  0
   14.7597   -5.5763    0.0000 N    0  0  0  0  0  0  0  0  0  0  0  0
   12.7008   -4.9729    0.0000 C    0  0  0  0  0  0  0  0  0  0  0  0
   13.9524   -4.5289    0.0000 C    0  0  0  0  0  0  0  0  0  0  0  0
   13.1712   -8.1943    0.0000 N    0  0  0  0  0  0  0  0  0  0  0  0
   12.6210   -9.4014    0.0000 C    0  0  0  0  0  0  0  0  0  0  0  0
   12.1860   -7.2979    0.0000 N    0  0  0  0  0  0  0  0  0  0  0  0
   11.2985   -9.2593    0.0000 C    0  0  0  0  0  0  0  0  0  0  0  0
   11.0321   -7.9548    0.0000 C    0  0  0  0  0  0  0  0  0  0  0  0
   14.1031   -9.1975    0.0000 H    0  0  0  0  0  0  0  0  0  0  0  0
   11.4761   -6.7215    0.0000 C    0  0  0  0  0  0  0  0  0  0  0  0
   14.3250   -3.2510    0.0000 C    0  0  0  0  0  0  0  0  0  0  0  0
   14.5648  -10.8126    0.0000 C    0  0  0  0  0  0  0  0  0  0  0  0
   18.9666   -9.2327    0.0000 C    0  0  0  0  0  0  0  0  0  0  0  0
    9.8161   -7.4044    0.0000 C    0  0  0  0  0  0  0  0  0  0  0  0
   13.2866  -10.5642    0.0000 C    0  0  0  0  0  0  0  0  0  0  0  0
   17.0318   -6.5705    0.0000 Rh   0  3  0  0  0  0  0  0  0  0  0  0
   18.0170   -7.4576    0.0000 C    0  0  0  0  0  0  0  0  0  0  0  0
   16.4105   -5.3990    0.0000 C    0  0  0  0  0  0  0  0  0  0  0  0
   15.7805   -4.2183    0.0000 O    0  0  0  0  0  0  0  0  0  0  0  0
   18.2033   -5.9492    0.0000 P    0  0  0  0  0  0  0  0  0  0  0  0
   18.8336   -7.1203    0.0000 C    0  0  0  0  0  0  0  0  0  0  0  0
   17.5823   -4.7777    0.0000 C    0  0  0  0  0  0  0  0  0  0  0  0
   19.3840   -5.3278    0.0000 C    0  0  0  0  0  0  0  0  0  0  0  0
   24.7733   -7.1788    0.0000 I    0  5  0  0  0  0  0  0  0  0  0  0
  2  3  1  0  0  0  0
  2  4  1  0  0  0  0
  3  5  2  0  0  0  0
  4  6  2  0  0  0  0
  5  6  1  0  0  0  0
  1  2  1  0  0  0  0
  7  8  1  0  0  0  0
  7  9  1  0  0  0  0
  8 10  2  0  0  0  0
  9 11  2  0  0  0  0
 10 11  1  0  0  0  0
  1  7  1  0  0  0  0
 12 13  1  0  0  0  0
 12 14  1  0  0  0  0
 13 15  2  0  0  0  0
 14 16  2  0  0  0  0
 15 16  1  0  0  0  0
  1 12  1  0  0  0  0
  1 17  1  0  0  0  0
  8 18  1  0  0  0  0
 11 19  1  0  0  0  0
  3 20  1  0  0  0  0
  6 21  1  0  0  0  0
 16 22  1  0  0  0  0
 13 23  1  0  0  0  0
  1 24  1  0  0  0  0
 24 25  1  0  0  0  0
 24 26  1  0  0  0  0
 26 27  3  0  0  0  0
 24 28  1  0  0  0  0
 28 29  1  0  0  0  0
 28 30  1  0  0  0  0
 28 31  1  0  0  0  0
M  END
> <NMREDATA_VERSION>
1.1

> <NMREDATA_LEVEL>
0

> <NMREDATA_SOLVENT>
CD2Cl2

> <NMREDATA_TEMPERATURE>
233

> <NMREDATA_FORMULA>
C20H36BIN6OPRh

> <NMREDATA_SMILES>
[O]#C[Rh]([BH](n1nc(cc1C)C)(n1nc(cc1C)C)n1nc(cc1C)C)(P(C)(C)C)C.I

> <NMREDATA_ASSIGNMENT>
Rh24, 1111.00, 24

> <NMREDATA_1D_103Rh>
1111.00, L=Rh24

$$$$

  ACD/LABS03222419082D

 37 39  0  0  0  0  0  0  0  0  2 V2000
   14.4760   -7.9192    0.0000 B    0  0  0  0  0  0  0  0  0  0  0  0
   15.5673   -8.6736    0.0000 N    0  0  0  0  0  0  0  0  0  0  0  0
   15.6119  -10.0050    0.0000 C    0  0  0  0  0  0  0  0  0  0  0  0
   16.8189   -8.2209    0.0000 N    0  0  0  0  0  0  0  0  0  0  0  0
   16.8898  -10.3689    0.0000 C    0  0  0  0  0  0  0  0  0  0  0  0
   17.6355   -9.2683    0.0000 C    0  0  0  0  0  0  0  0  0  0  0  0
   14.0233   -6.6769    0.0000 N    0  0  0  0  0  0  0  0  0  0  0  0
   12.7451   -6.3041    0.0000 C    0  0  0  0  0  0  0  0  0  0  0  0
   14.7597   -5.5763    0.0000 N    0  0  0  0  0  0  0  0  0  0  0  0
   12.7008   -4.9729    0.0000 C    0  0  0  0  0  0  0  0  0  0  0  0
   13.9524   -4.5289    0.0000 C    0  0  0  0  0  0  0  0  0  0  0  0
   13.1712   -8.1943    0.0000 N    0  0  0  0  0  0  0  0  0  0  0  0
   12.6210   -9.4014    0.0000 C    0  0  0  0  0  0  0  0  0  0  0  0
   12.1860   -7.2979    0.0000 N    0  0  0  0  0  0  0  0  0  0  0  0
   11.2985   -9.2593    0.0000 C    0  0  0  0  0  0  0  0  0  0  0  0
   11.0321   -7.9548    0.0000 C    0  0  0  0  0  0  0  0  0  0  0  0
   14.1031   -9.1975    0.0000 H    0  0  0  0  0  0  0  0  0  0  0  0
   11.4761   -6.7215    0.0000 C    0  0  0  0  0  0  0  0  0  0  0  0
   14.3250   -3.2510    0.0000 C    0  0  0  0  0  0  0  0  0  0  0  0
   14.5648  -10.8126    0.0000 C    0  0  0  0  0  0  0  0  0  0  0  0
   18.9666   -9.2327    0.0000 C    0  0  0  0  0  0  0  0  0  0  0  0
    9.8161   -7.4044    0.0000 C    0  0  0  0  0  0  0  0  0  0  0  0
   13.2866  -10.5642    0.0000 C    0  0  0  0  0  0  0  0  0  0  0  0
   17.0318   -6.5705    0.0000 Rh   0  3  0  0  0  0  0  0  0  0  0  0
   18.0170   -7.4576    0.0000 C    0  0  0  0  0  0  0  0  0  0  0  0
   16.4105   -5.3990    0.0000 C    0  0  0  0  0  0  0  0  0  0  0  0
   15.7805   -4.2183    0.0000 O    0  0  0  0  0  0  0  0  0  0  0  0
   18.2033   -5.9492    0.0000 P    0  0  0  0  0  0  0  0  0  0  0  0
   18.8336   -7.1203    0.0000 C    0  0  0  0  0  0  0  0  0  0  0  0
   17.5823   -4.7777    0.0000 C    0  0  0  0  0  0  0  0  0  0  0  0
   19.3764   -5.3225    0.0000 C    0  0  0  0  0  0  0  0  0  0  0  0
   19.4203   -3.9933    0.0000 C    0  0  0  0  0  0  0  0  0  0  0  0
   20.5057   -6.0252    0.0000 C    0  0  0  0  0  0  0  0  0  0  0  0
   20.5936   -3.3667    0.0000 C    0  0  0  0  0  0  0  0  0  0  0  0
   21.6788   -5.3986    0.0000 C    0  0  0  0  0  0  0  0  0  0  0  0
   21.7228   -4.0694    0.0000 C    0  0  0  0  0  0  0  0  0  0  0  0
   24.7733   -7.1788    0.0000 I    0  5  0  0  0  0  0  0  0  0  0  0
  2  3  1  0  0  0  0
  2  4  1  0  0  0  0
  3  5  2  0  0  0  0
  4  6  2  0  0  0  0
  5  6  1  0  0  0  0
  1  2  1  0  0  0  0
  7  8  1  0  0  0  0
  7  9  1  0  0  0  0
  8 10  2  0  0  0  0
  9 11  2  0  0  0  0
 10 11  1  0  0  0  0
  1  7  1  0  0  0  0
 12 13  1  0  0  0  0
 12 14  1  0  0  0  0
 13 15  2  0  0  0  0
 14 16  2  0  0  0  0
 15 16  1  0  0  0  0
  1 12  1  0  0  0  0
  1 17  1  0  0  0  0
  8 18  1  0  0  0  0
 11 19  1  0  0  0  0
  3 20  1  0  0  0  0
  6 21  1  0  0  0  0
 16 22  1  0  0  0  0
 13 23  1  0  0  0  0
  1 24  1  0  0  0  0
 24 25  1  0  0  0  0
 24 26  1  0  0  0  0
 26 27  3  0  0  0  0
 24 28  1  0  0  0  0
 28 29  1  0  0  0  0
 28 30  1  0  0  0  0
 31 32  1  0  0  0  0
 31 33  2  0  0  0  0
 32 34  2  0  0  0  0
 33 35  1  0  0  0  0
 34 36  1  0  0  0  0
 35 36  2  0  0  0  0
 28 31  1  0  0  0  0
M  END
> <NMREDATA_VERSION>
1.1

> <NMREDATA_LEVEL>
0

> <NMREDATA_SOLVENT>
CD2Cl2

> <NMREDATA_TEMPERATURE>
233

> <NMREDATA_FORMULA>
C25H38BIN6OPRh

> <NMREDATA_SMILES>
[O]#C[Rh](P(c1ccccc1)(C)C)([BH](n1nc(cc1C)C)(n1nc(cc1C)C)n1nc(cc1C)C)C.I

> <NMREDATA_ASSIGNMENT>
Rh24, 1169.00, 24

> <NMREDATA_1D_103Rh>
1169.00, L=Rh24

$$$$

  ACD/LABS03222419102D

 37 39  0  0  0  0  0  0  0  0  1 V2000
   22.7679   -9.1596    0.0000 C    0  0  0  0  0  0  0  0  0  0  0  0
   22.7679  -10.4416    0.0000 C    0  0  0  0  0  0  0  0  0  0  0  0
   21.6577   -8.5187    0.0000 C    0  0  0  0  0  0  0  0  0  0  0  0
   21.6577  -11.0825    0.0000 C    0  0  0  0  0  0  0  0  0  0  0  0
   20.5475   -9.1596    0.0000 C    0  0  0  0  0  0  0  0  0  0  0  0
   20.5475  -10.4416    0.0000 C    0  0  0  0  0  0  0  0  0  0  0  0
   11.6660   -7.8777    0.0000 O    0  0  0  0  0  0  0  0  0  0  0  0
   12.7762   -7.2368    0.0000 N    0  0  0  0  0  0  0  0  0  0  0  0
   13.8864   -7.8777    0.0000 C    0  0  0  0  0  0  0  0  0  0  0  0
   13.8864   -9.1596    0.0000 C    0  0  0  0  0  0  0  0  0  0  0  0
   14.9966   -7.2368    0.0000 C    0  0  0  0  0  0  0  0  0  0  0  0
   14.9966   -5.9548    0.0000 C    0  0  0  0  0  0  0  0  0  0  0  0
   16.1068   -7.8777    0.0000 N    0  0  0  0  0  0  0  0  0  0  0  0
   17.2169   -7.2368    0.0000 O    0  0  0  0  0  0  0  0  0  0  0  0
   12.5585   -8.9879    0.0000 O    0  0  0  0  0  0  0  0  0  0  0  0
   13.8404   -8.9879    0.0000 N    0  0  0  0  0  0  0  0  0  0  0  0
   14.4813  -10.0981    0.0000 C    0  0  0  0  0  0  0  0  0  0  0  0
   13.8404  -11.2083    0.0000 C    0  0  0  0  0  0  0  0  0  0  0  0
   15.7633  -10.0981    0.0000 C    0  0  0  0  0  0  0  0  0  0  0  0
   16.4042  -11.2083    0.0000 C    0  0  0  0  0  0  0  0  0  0  0  0
   16.4042   -8.9879    0.0000 N    0  0  0  0  0  0  0  0  0  0  0  0
   17.6862   -8.9879    0.0000 O    0  0  0  0  0  0  0  0  0  0  0  0
   18.3271   -7.8777    0.0000 Rh   0  0  0  0  0  0  0  0  0  0  0  0
   18.9681   -6.7675    0.0000 C    0  0  0  0  0  0  0  0  0  0  0  0
   19.4373   -8.5187    0.0000 P    0  0  0  0  0  0  0  0  0  0  0  0
   18.7964   -9.6289    0.0000 C    0  0  0  0  0  0  0  0  0  0  0  0
   19.4373  -10.7390    0.0000 C    0  0  0  0  0  0  0  0  0  0  0  0
   17.5144   -9.6289    0.0000 C    0  0  0  0  0  0  0  0  0  0  0  0
   18.7964  -11.8492    0.0000 C    0  0  0  0  0  0  0  0  0  0  0  0
   16.8735  -10.7390    0.0000 C    0  0  0  0  0  0  0  0  0  0  0  0
   17.5144  -11.8492    0.0000 C    0  0  0  0  0  0  0  0  0  0  0  0
   20.0783   -7.4085    0.0000 C    0  0  0  0  0  0  0  0  0  0  0  0
   19.4373   -6.2983    0.0000 C    0  0  0  0  0  0  0  0  0  0  0  0
   21.3602   -7.4085    0.0000 C    0  0  0  0  0  0  0  0  0  0  0  0
   20.0783   -5.1881    0.0000 C    0  0  0  0  0  0  0  0  0  0  0  0
   22.0012   -6.2983    0.0000 C    0  0  0  0  0  0  0  0  0  0  0  0
   21.3602   -5.1881    0.0000 C    0  0  0  0  0  0  0  0  0  0  0  0
  1  2  1  0  0  0  0
  1  3  2  0  0  0  0
  2  4  2  0  0  0  0
  3  5  1  0  0  0  0
  4  6  1  0  0  0  0
  5  6  2  0  0  0  0
  7  8  1  0  0  0  0
  8  9  2  0  0  0  0
  9 10  1  0  0  0  0
  9 11  1  0  0  0  0
 11 12  1  0  0  0  0
 11 13  2  0  0  0  0
 13 14  1  0  0  0  0
 15 16  1  0  0  0  0
 16 17  2  0  0  0  0
 17 18  1  0  0  0  0
 17 19  1  0  0  0  0
 19 20  1  0  0  0  0
 19 21  2  0  0  0  0
 21 22  1  0  0  0  0
 22 23  1  0  0  0  0
 14 23  1  0  0  0  0
 23 24  1  0  0  0  0
 23 25  1  0  0  0  0
 26 27  1  0  0  0  0
 26 28  2  0  0  0  0
 27 29  2  0  0  0  0
 28 30  1  0  0  0  0
 29 31  1  0  0  0  0
 30 31  2  0  0  0  0
 25 26  1  0  0  0  0
 32 33  1  0  0  0  0
 32 34  2  0  0  0  0
 33 35  2  0  0  0  0
 34 36  1  0  0  0  0
 35 37  1  0  0  0  0
 36 37  2  0  0  0  0
 25 32  1  0  0  0  0
  5 25  1  0  0  0  0
M  END
> <NMREDATA_VERSION>
1.1

> <NMREDATA_LEVEL>
0

> <NMREDATA_SOLVENT>
DCCl3

> <NMREDATA_TEMPERATURE>
298

> <NMREDATA_FORMULA>
C27H33N4O4PRh

> <NMREDATA_SMILES>
O/N=C(/C(=N/O[Rh](P(c1ccccc1)(c1ccccc1)c1ccccc1)(O/N=C(/C(=N/O)/C)\C)C)/C)\C

> <NMREDATA_ASSIGNMENT>
Rh23, 2038.00, 23

> <NMREDATA_1D_103Rh>
2038.00, L=Rh23

$$$$

  ACD/LABS03222419102D

 38 40  0  0  0  0  0  0  0  0  1 V2000
   22.7679   -9.1596    0.0000 C    0  0  0  0  0  0  0  0  0  0  0  0
   22.7679  -10.4416    0.0000 C    0  0  0  0  0  0  0  0  0  0  0  0
   21.6577   -8.5187    0.0000 C    0  0  0  0  0  0  0  0  0  0  0  0
   21.6577  -11.0825    0.0000 C    0  0  0  0  0  0  0  0  0  0  0  0
   20.5475   -9.1596    0.0000 C    0  0  0  0  0  0  0  0  0  0  0  0
   20.5475  -10.4416    0.0000 C    0  0  0  0  0  0  0  0  0  0  0  0
   11.6660   -7.8777    0.0000 O    0  0  0  0  0  0  0  0  0  0  0  0
   12.7762   -7.2368    0.0000 N    0  0  0  0  0  0  0  0  0  0  0  0
   13.8864   -7.8777    0.0000 C    0  0  0  0  0  0  0  0  0  0  0  0
   13.8864   -9.1596    0.0000 C    0  0  0  0  0  0  0  0  0  0  0  0
   14.9966   -7.2368    0.0000 C    0  0  0  0  0  0  0  0  0  0  0  0
   14.9966   -5.9548    0.0000 C    0  0  0  0  0  0  0  0  0  0  0  0
   16.1068   -7.8777    0.0000 N    0  0  0  0  0  0  0  0  0  0  0  0
   17.2169   -7.2368    0.0000 O    0  0  0  0  0  0  0  0  0  0  0  0
   12.5585   -8.9879    0.0000 O    0  0  0  0  0  0  0  0  0  0  0  0
   13.8404   -8.9879    0.0000 N    0  0  0  0  0  0  0  0  0  0  0  0
   14.4813  -10.0981    0.0000 C    0  0  0  0  0  0  0  0  0  0  0  0
   13.8404  -11.2083    0.0000 C    0  0  0  0  0  0  0  0  0  0  0  0
   15.7633  -10.0981    0.0000 C    0  0  0  0  0  0  0  0  0  0  0  0
   16.4042  -11.2083    0.0000 C    0  0  0  0  0  0  0  0  0  0  0  0
   16.4042   -8.9879    0.0000 N    0  0  0  0  0  0  0  0  0  0  0  0
   17.6862   -8.9879    0.0000 O    0  0  0  0  0  0  0  0  0  0  0  0
   18.3271   -7.8777    0.0000 Rh   0  0  0  0  0  0  0  0  0  0  0  0
   18.9681   -6.7675    0.0000 C    0  0  0  0  0  0  0  0  0  0  0  0
   19.4373   -8.5187    0.0000 P    0  0  0  0  0  0  0  0  0  0  0  0
   18.7964   -9.6289    0.0000 C    0  0  0  0  0  0  0  0  0  0  0  0
   19.4373  -10.7390    0.0000 C    0  0  0  0  0  0  0  0  0  0  0  0
   17.5144   -9.6289    0.0000 C    0  0  0  0  0  0  0  0  0  0  0  0
   18.7964  -11.8492    0.0000 C    0  0  0  0  0  0  0  0  0  0  0  0
   16.8735  -10.7390    0.0000 C    0  0  0  0  0  0  0  0  0  0  0  0
   17.5144  -11.8492    0.0000 C    0  0  0  0  0  0  0  0  0  0  0  0
   20.0783   -7.4085    0.0000 C    0  0  0  0  0  0  0  0  0  0  0  0
   19.4373   -6.2983    0.0000 C    0  0  0  0  0  0  0  0  0  0  0  0
   21.3602   -7.4085    0.0000 C    0  0  0  0  0  0  0  0  0  0  0  0
   20.0783   -5.1881    0.0000 C    0  0  0  0  0  0  0  0  0  0  0  0
   22.0012   -6.2983    0.0000 C    0  0  0  0  0  0  0  0  0  0  0  0
   21.3602   -5.1881    0.0000 C    0  0  0  0  0  0  0  0  0  0  0  0
   20.2500   -6.7675    0.0000 C    0  0  0  0  0  0  0  0  0  0  0  0
  1  2  1  0  0  0  0
  1  3  2  0  0  0  0
  2  4  2  0  0  0  0
  3  5  1  0  0  0  0
  4  6  1  0  0  0  0
  5  6  2  0  0  0  0
  7  8  1  0  0  0  0
  8  9  2  0  0  0  0
  9 10  1  0  0  0  0
  9 11  1  0  0  0  0
 11 12  1  0  0  0  0
 11 13  2  0  0  0  0
 13 14  1  0  0  0  0
 15 16  1  0  0  0  0
 16 17  2  0  0  0  0
 17 18  1  0  0  0  0
 17 19  1  0  0  0  0
 19 20  1  0  0  0  0
 19 21  2  0  0  0  0
 21 22  1  0  0  0  0
 22 23  1  0  0  0  0
 14 23  1  0  0  0  0
 23 24  1  0  0  0  0
 23 25  1  0  0  0  0
 26 27  1  0  0  0  0
 26 28  2  0  0  0  0
 27 29  2  0  0  0  0
 28 30  1  0  0  0  0
 29 31  1  0  0  0  0
 30 31  2  0  0  0  0
 25 26  1  0  0  0  0
 32 33  1  0  0  0  0
 32 34  2  0  0  0  0
 33 35  2  0  0  0  0
 34 36  1  0  0  0  0
 35 37  1  0  0  0  0
 36 37  2  0  0  0  0
 25 32  1  0  0  0  0
  5 25  1  0  0  0  0
 24 38  1  0  0  0  0
M  END
> <NMREDATA_VERSION>
1.1

> <NMREDATA_LEVEL>
0

> <NMREDATA_SOLVENT>
DCCl3

> <NMREDATA_TEMPERATURE>
298

> <NMREDATA_FORMULA>
C28H35N4O4PRh

> <NMREDATA_SMILES>
CC[Rh](P(c1ccccc1)(c1ccccc1)c1ccccc1)(O/N=C(/C(=N/O)/C)\C)O/N=C(/C(=N/O)/C)\C

> <NMREDATA_ASSIGNMENT>
Rh23, 2033.00, 23

> <NMREDATA_1D_103Rh>
2033.00, L=Rh23

$$$$

  ACD/LABS03222419112D

 39 41  0  0  0  0  0  0  0  0  1 V2000
   22.7679   -9.1596    0.0000 C    0  0  0  0  0  0  0  0  0  0  0  0
   22.7679  -10.4416    0.0000 C    0  0  0  0  0  0  0  0  0  0  0  0
   21.6577   -8.5187    0.0000 C    0  0  0  0  0  0  0  0  0  0  0  0
   21.6577  -11.0825    0.0000 C    0  0  0  0  0  0  0  0  0  0  0  0
   20.5475   -9.1596    0.0000 C    0  0  0  0  0  0  0  0  0  0  0  0
   20.5475  -10.4416    0.0000 C    0  0  0  0  0  0  0  0  0  0  0  0
   11.6660   -7.8777    0.0000 O    0  0  0  0  0  0  0  0  0  0  0  0
   12.7762   -7.2368    0.0000 N    0  0  0  0  0  0  0  0  0  0  0  0
   13.8864   -7.8777    0.0000 C    0  0  0  0  0  0  0  0  0  0  0  0
   13.8864   -9.1596    0.0000 C    0  0  0  0  0  0  0  0  0  0  0  0
   14.9966   -7.2368    0.0000 C    0  0  0  0  0  0  0  0  0  0  0  0
   14.9966   -5.9548    0.0000 C    0  0  0  0  0  0  0  0  0  0  0  0
   16.1068   -7.8777    0.0000 N    0  0  0  0  0  0  0  0  0  0  0  0
   17.2169   -7.2368    0.0000 O    0  0  0  0  0  0  0  0  0  0  0  0
   12.5585   -8.9879    0.0000 O    0  0  0  0  0  0  0  0  0  0  0  0
   13.8404   -8.9879    0.0000 N    0  0  0  0  0  0  0  0  0  0  0  0
   14.4813  -10.0981    0.0000 C    0  0  0  0  0  0  0  0  0  0  0  0
   13.8404  -11.2083    0.0000 C    0  0  0  0  0  0  0  0  0  0  0  0
   15.7633  -10.0981    0.0000 C    0  0  0  0  0  0  0  0  0  0  0  0
   16.4042  -11.2083    0.0000 C    0  0  0  0  0  0  0  0  0  0  0  0
   16.4042   -8.9879    0.0000 N    0  0  0  0  0  0  0  0  0  0  0  0
   17.6862   -8.9879    0.0000 O    0  0  0  0  0  0  0  0  0  0  0  0
   18.3271   -7.8777    0.0000 Rh   0  0  0  0  0  0  0  0  0  0  0  0
   18.9681   -6.7675    0.0000 C    0  0  0  0  0  0  0  0  0  0  0  0
   19.4373   -8.5187    0.0000 P    0  0  0  0  0  0  0  0  0  0  0  0
   18.7964   -9.6289    0.0000 C    0  0  0  0  0  0  0  0  0  0  0  0
   19.4373  -10.7390    0.0000 C    0  0  0  0  0  0  0  0  0  0  0  0
   17.5144   -9.6289    0.0000 C    0  0  0  0  0  0  0  0  0  0  0  0
   18.7964  -11.8492    0.0000 C    0  0  0  0  0  0  0  0  0  0  0  0
   16.8735  -10.7390    0.0000 C    0  0  0  0  0  0  0  0  0  0  0  0
   17.5144  -11.8492    0.0000 C    0  0  0  0  0  0  0  0  0  0  0  0
   20.0783   -7.4085    0.0000 C    0  0  0  0  0  0  0  0  0  0  0  0
   19.4373   -6.2983    0.0000 C    0  0  0  0  0  0  0  0  0  0  0  0
   21.3602   -7.4085    0.0000 C    0  0  0  0  0  0  0  0  0  0  0  0
   20.0783   -5.1881    0.0000 C    0  0  0  0  0  0  0  0  0  0  0  0
   22.0012   -6.2983    0.0000 C    0  0  0  0  0  0  0  0  0  0  0  0
   21.3602   -5.1881    0.0000 C    0  0  0  0  0  0  0  0  0  0  0  0
   20.2500   -6.7675    0.0000 C    0  0  0  0  0  0  0  0  0  0  0  0
   20.8910   -7.8777    0.0000 C    0  0  0  0  0  0  0  0  0  0  0  0
  1  2  1  0  0  0  0
  1  3  2  0  0  0  0
  2  4  2  0  0  0  0
  3  5  1  0  0  0  0
  4  6  1  0  0  0  0
  5  6  2  0  0  0  0
  7  8  1  0  0  0  0
  8  9  2  0  0  0  0
  9 10  1  0  0  0  0
  9 11  1  0  0  0  0
 11 12  1  0  0  0  0
 11 13  2  0  0  0  0
 13 14  1  0  0  0  0
 15 16  1  0  0  0  0
 16 17  2  0  0  0  0
 17 18  1  0  0  0  0
 17 19  1  0  0  0  0
 19 20  1  0  0  0  0
 19 21  2  0  0  0  0
 21 22  1  0  0  0  0
 22 23  1  0  0  0  0
 14 23  1  0  0  0  0
 23 24  1  0  0  0  0
 23 25  1  0  0  0  0
 26 27  1  0  0  0  0
 26 28  2  0  0  0  0
 27 29  2  0  0  0  0
 28 30  1  0  0  0  0
 29 31  1  0  0  0  0
 30 31  2  0  0  0  0
 25 26  1  0  0  0  0
 32 33  1  0  0  0  0
 32 34  2  0  0  0  0
 33 35  2  0  0  0  0
 34 36  1  0  0  0  0
 35 37  1  0  0  0  0
 36 37  2  0  0  0  0
 25 32  1  0  0  0  0
  5 25  1  0  0  0  0
 24 38  1  0  0  0  0
 38 39  1  0  0  0  0
M  END
> <NMREDATA_VERSION>
1.1

> <NMREDATA_LEVEL>
0

> <NMREDATA_SOLVENT>
DCCl3

> <NMREDATA_TEMPERATURE>
298

> <NMREDATA_FORMULA>
C29H37N4O4PRh

> <NMREDATA_SMILES>
CCC[Rh](P(c1ccccc1)(c1ccccc1)c1ccccc1)(O/N=C(/C(=N/O)/C)\C)O/N=C(/C(=N/O)/C)\C

> <NMREDATA_ASSIGNMENT>
Rh23, 2057.00, 23

> <NMREDATA_1D_103Rh>
2057.00, L=Rh23

$$$$

  ACD/LABS03222419112D

 39 41  0  0  0  0  0  0  0  0  1 V2000
   22.7679   -9.1596    0.0000 C    0  0  0  0  0  0  0  0  0  0  0  0
   22.7679  -10.4416    0.0000 C    0  0  0  0  0  0  0  0  0  0  0  0
   21.6577   -8.5187    0.0000 C    0  0  0  0  0  0  0  0  0  0  0  0
   21.6577  -11.0825    0.0000 C    0  0  0  0  0  0  0  0  0  0  0  0
   20.5475   -9.1596    0.0000 C    0  0  0  0  0  0  0  0  0  0  0  0
   20.5475  -10.4416    0.0000 C    0  0  0  0  0  0  0  0  0  0  0  0
   11.6660   -7.8777    0.0000 O    0  0  0  0  0  0  0  0  0  0  0  0
   12.7762   -7.2368    0.0000 N    0  0  0  0  0  0  0  0  0  0  0  0
   13.8864   -7.8777    0.0000 C    0  0  0  0  0  0  0  0  0  0  0  0
   13.8864   -9.1596    0.0000 C    0  0  0  0  0  0  0  0  0  0  0  0
   14.9966   -7.2368    0.0000 C    0  0  0  0  0  0  0  0  0  0  0  0
   14.9966   -5.9548    0.0000 C    0  0  0  0  0  0  0  0  0  0  0  0
   16.1068   -7.8777    0.0000 N    0  0  0  0  0  0  0  0  0  0  0  0
   17.2169   -7.2368    0.0000 O    0  0  0  0  0  0  0  0  0  0  0  0
   12.5585   -8.9879    0.0000 O    0  0  0  0  0  0  0  0  0  0  0  0
   13.8404   -8.9879    0.0000 N    0  0  0  0  0  0  0  0  0  0  0  0
   14.4813  -10.0981    0.0000 C    0  0  0  0  0  0  0  0  0  0  0  0
   13.8404  -11.2083    0.0000 C    0  0  0  0  0  0  0  0  0  0  0  0
   15.7633  -10.0981    0.0000 C    0  0  0  0  0  0  0  0  0  0  0  0
   16.4042  -11.2083    0.0000 C    0  0  0  0  0  0  0  0  0  0  0  0
   16.4042   -8.9879    0.0000 N    0  0  0  0  0  0  0  0  0  0  0  0
   17.6862   -8.9879    0.0000 O    0  0  0  0  0  0  0  0  0  0  0  0
   18.3271   -7.8777    0.0000 Rh   0  0  0  0  0  0  0  0  0  0  0  0
   19.4373   -8.5187    0.0000 P    0  0  0  0  0  0  0  0  0  0  0  0
   18.7964   -9.6289    0.0000 C    0  0  0  0  0  0  0  0  0  0  0  0
   19.4373  -10.7390    0.0000 C    0  0  0  0  0  0  0  0  0  0  0  0
   17.5144   -9.6289    0.0000 C    0  0  0  0  0  0  0  0  0  0  0  0
   18.7964  -11.8492    0.0000 C    0  0  0  0  0  0  0  0  0  0  0  0
   16.8735  -10.7390    0.0000 C    0  0  0  0  0  0  0  0  0  0  0  0
   17.5144  -11.8492    0.0000 C    0  0  0  0  0  0  0  0  0  0  0  0
   20.0783   -7.4085    0.0000 C    0  0  0  0  0  0  0  0  0  0  0  0
   19.4373   -6.2983    0.0000 C    0  0  0  0  0  0  0  0  0  0  0  0
   21.3602   -7.4085    0.0000 C    0  0  0  0  0  0  0  0  0  0  0  0
   20.0783   -5.1881    0.0000 C    0  0  0  0  0  0  0  0  0  0  0  0
   22.0012   -6.2983    0.0000 C    0  0  0  0  0  0  0  0  0  0  0  0
   21.3602   -5.1881    0.0000 C    0  0  0  0  0  0  0  0  0  0  0  0
   18.9681   -6.7675    0.0000 C    0  0  0  0  0  0  0  0  0  0  0  0
   18.3270   -5.6573    0.0000 C    0  0  0  0  0  0  0  0  0  0  0  0
   20.2500   -6.7675    0.0000 C    0  0  0  0  0  0  0  0  0  0  0  0
  1  2  1  0  0  0  0
  1  3  2  0  0  0  0
  2  4  2  0  0  0  0
  3  5  1  0  0  0  0
  4  6  1  0  0  0  0
  5  6  2  0  0  0  0
  7  8  1  0  0  0  0
  8  9  2  0  0  0  0
  9 10  1  0  0  0  0
  9 11  1  0  0  0  0
 11 12  1  0  0  0  0
 11 13  2  0  0  0  0
 13 14  1  0  0  0  0
 15 16  1  0  0  0  0
 16 17  2  0  0  0  0
 17 18  1  0  0  0  0
 17 19  1  0  0  0  0
 19 20  1  0  0  0  0
 19 21  2  0  0  0  0
 21 22  1  0  0  0  0
 22 23  1  0  0  0  0
 14 23  1  0  0  0  0
 23 24  1  0  0  0  0
 25 26  1  0  0  0  0
 25 27  2  0  0  0  0
 26 28  2  0  0  0  0
 27 29  1  0  0  0  0
 28 30  1  0  0  0  0
 29 30  2  0  0  0  0
 24 25  1  0  0  0  0
 31 32  1  0  0  0  0
 31 33  2  0  0  0  0
 32 34  2  0  0  0  0
 33 35  1  0  0  0  0
 34 36  1  0  0  0  0
 35 36  2  0  0  0  0
 24 31  1  0  0  0  0
  5 24  1  0  0  0  0
 37 38  1  0  0  0  0
 37 39  1  0  0  0  0
 23 37  1  0  0  0  0
M  END
> <NMREDATA_VERSION>
1.1

> <NMREDATA_LEVEL>
0

> <NMREDATA_SOLVENT>
DCCl3

> <NMREDATA_TEMPERATURE>
298

> <NMREDATA_FORMULA>
C29H37N4O4PRh

> <NMREDATA_SMILES>
CC([Rh](P(c1ccccc1)(c1ccccc1)c1ccccc1)(O/N=C(/C(=N/O)/C)\C)O/N=C(/C(=N/O)/C)\C)C

> <NMREDATA_ASSIGNMENT>
Rh23, 2110.00, 23

> <NMREDATA_1D_103Rh>
2110.00, L=Rh23

$$$$

  ACD/LABS03222419122D

 40 42  0  0  0  0  0  0  0  0  1 V2000
   22.7679   -9.5563    0.0000 C    0  0  0  0  0  0  0  0  0  0  0  0
   22.7679  -10.8383    0.0000 C    0  0  0  0  0  0  0  0  0  0  0  0
   21.6577   -8.9154    0.0000 C    0  0  0  0  0  0  0  0  0  0  0  0
   21.6577  -11.4792    0.0000 C    0  0  0  0  0  0  0  0  0  0  0  0
   20.5475   -9.5563    0.0000 C    0  0  0  0  0  0  0  0  0  0  0  0
   20.5475  -10.8383    0.0000 C    0  0  0  0  0  0  0  0  0  0  0  0
   11.6660   -8.2744    0.0000 O    0  0  0  0  0  0  0  0  0  0  0  0
   12.7762   -7.6334    0.0000 N    0  0  0  0  0  0  0  0  0  0  0  0
   13.8864   -8.2744    0.0000 C    0  0  0  0  0  0  0  0  0  0  0  0
   13.8864   -9.5563    0.0000 C    0  0  0  0  0  0  0  0  0  0  0  0
   14.9966   -7.6334    0.0000 C    0  0  0  0  0  0  0  0  0  0  0  0
   14.9966   -6.3515    0.0000 C    0  0  0  0  0  0  0  0  0  0  0  0
   16.1068   -8.2744    0.0000 N    0  0  0  0  0  0  0  0  0  0  0  0
   17.2169   -7.6334    0.0000 O    0  0  0  0  0  0  0  0  0  0  0  0
   12.5585   -9.3846    0.0000 O    0  0  0  0  0  0  0  0  0  0  0  0
   13.8404   -9.3846    0.0000 N    0  0  0  0  0  0  0  0  0  0  0  0
   14.4813  -10.4948    0.0000 C    0  0  0  0  0  0  0  0  0  0  0  0
   13.8404  -11.6050    0.0000 C    0  0  0  0  0  0  0  0  0  0  0  0
   15.7633  -10.4948    0.0000 C    0  0  0  0  0  0  0  0  0  0  0  0
   16.4042  -11.6050    0.0000 C    0  0  0  0  0  0  0  0  0  0  0  0
   16.4042   -9.3846    0.0000 N    0  0  0  0  0  0  0  0  0  0  0  0
   17.6862   -9.3846    0.0000 O    0  0  0  0  0  0  0  0  0  0  0  0
   18.3271   -8.2744    0.0000 Rh   0  0  0  0  0  0  0  0  0  0  0  0
   19.4373   -8.9154    0.0000 P    0  0  0  0  0  0  0  0  0  0  0  0
   18.7964  -10.0256    0.0000 C    0  0  0  0  0  0  0  0  0  0  0  0
   19.4373  -11.1357    0.0000 C    0  0  0  0  0  0  0  0  0  0  0  0
   17.5144  -10.0256    0.0000 C    0  0  0  0  0  0  0  0  0  0  0  0
   18.7964  -12.2459    0.0000 C    0  0  0  0  0  0  0  0  0  0  0  0
   16.8735  -11.1357    0.0000 C    0  0  0  0  0  0  0  0  0  0  0  0
   17.5144  -12.2459    0.0000 C    0  0  0  0  0  0  0  0  0  0  0  0
   20.0783   -7.8052    0.0000 C    0  0  0  0  0  0  0  0  0  0  0  0
   19.4373   -6.6950    0.0000 C    0  0  0  0  0  0  0  0  0  0  0  0
   21.3602   -7.8052    0.0000 C    0  0  0  0  0  0  0  0  0  0  0  0
   20.0783   -5.5848    0.0000 C    0  0  0  0  0  0  0  0  0  0  0  0
   22.0012   -6.6950    0.0000 C    0  0  0  0  0  0  0  0  0  0  0  0
   21.3602   -5.5848    0.0000 C    0  0  0  0  0  0  0  0  0  0  0  0
   18.9681   -7.1642    0.0000 C    0  0  0  0  0  0  0  0  0  0  0  0
   18.3271   -6.0540    0.0000 C    0  0  0  0  0  0  0  0  0  0  0  0
   18.9681   -4.9439    0.0000 C    0  0  0  0  0  0  0  0  0  0  0  0
   18.3271   -3.8337    0.0000 C    0  0  0  0  0  0  0  0  0  0  0  0
  1  2  1  0  0  0  0
  1  3  2  0  0  0  0
  2  4  2  0  0  0  0
  3  5  1  0  0  0  0
  4  6  1  0  0  0  0
  5  6  2  0  0  0  0
  7  8  1  0  0  0  0
  8  9  2  0  0  0  0
  9 10  1  0  0  0  0
  9 11  1  0  0  0  0
 11 12  1  0  0  0  0
 11 13  2  0  0  0  0
 13 14  1  0  0  0  0
 15 16  1  0  0  0  0
 16 17  2  0  0  0  0
 17 18  1  0  0  0  0
 17 19  1  0  0  0  0
 19 20  1  0  0  0  0
 19 21  2  0  0  0  0
 21 22  1  0  0  0  0
 22 23  1  0  0  0  0
 14 23  1  0  0  0  0
 23 24  1  0  0  0  0
 25 26  1  0  0  0  0
 25 27  2  0  0  0  0
 26 28  2  0  0  0  0
 27 29  1  0  0  0  0
 28 30  1  0  0  0  0
 29 30  2  0  0  0  0
 24 25  1  0  0  0  0
 31 32  1  0  0  0  0
 31 33  2  0  0  0  0
 32 34  2  0  0  0  0
 33 35  1  0  0  0  0
 34 36  1  0  0  0  0
 35 36  2  0  0  0  0
 24 31  1  0  0  0  0
  5 24  1  0  0  0  0
 23 37  1  0  0  0  0
 37 38  1  0  0  0  0
 38 39  1  0  0  0  0
 39 40  1  0  0  0  0
M  END
> <NMREDATA_VERSION>
1.1

> <NMREDATA_LEVEL>
0

> <NMREDATA_SOLVENT>
DCCl3

> <NMREDATA_TEMPERATURE>
298

> <NMREDATA_FORMULA>
C30H39N4O4PRh

> <NMREDATA_SMILES>
CCCC[Rh](P(c1ccccc1)(c1ccccc1)c1ccccc1)(O/N=C(/C(=N/O)/C)\C)O/N=C(/C(=N/O)/C)\C

> <NMREDATA_ASSIGNMENT>
Rh23, 2048.00, 23

> <NMREDATA_1D_103Rh>
2048.00, L=Rh23

$$$$

  ACD/LABS03222419122D

 40 42  0  0  0  0  0  0  0  0  1 V2000
   22.7679   -9.5563    0.0000 C    0  0  0  0  0  0  0  0  0  0  0  0
   22.7679  -10.8383    0.0000 C    0  0  0  0  0  0  0  0  0  0  0  0
   21.6577   -8.9154    0.0000 C    0  0  0  0  0  0  0  0  0  0  0  0
   21.6577  -11.4792    0.0000 C    0  0  0  0  0  0  0  0  0  0  0  0
   20.5475   -9.5563    0.0000 C    0  0  0  0  0  0  0  0  0  0  0  0
   20.5475  -10.8383    0.0000 C    0  0  0  0  0  0  0  0  0  0  0  0
   11.6660   -8.2744    0.0000 O    0  0  0  0  0  0  0  0  0  0  0  0
   12.7762   -7.6334    0.0000 N    0  0  0  0  0  0  0  0  0  0  0  0
   13.8864   -8.2744    0.0000 C    0  0  0  0  0  0  0  0  0  0  0  0
   13.8864   -9.5563    0.0000 C    0  0  0  0  0  0  0  0  0  0  0  0
   14.9966   -7.6334    0.0000 C    0  0  0  0  0  0  0  0  0  0  0  0
   14.9966   -6.3515    0.0000 C    0  0  0  0  0  0  0  0  0  0  0  0
   16.1068   -8.2744    0.0000 N    0  0  0  0  0  0  0  0  0  0  0  0
   17.2169   -7.6334    0.0000 O    0  0  0  0  0  0  0  0  0  0  0  0
   12.5585   -9.3846    0.0000 O    0  0  0  0  0  0  0  0  0  0  0  0
   13.8404   -9.3846    0.0000 N    0  0  0  0  0  0  0  0  0  0  0  0
   14.4813  -10.4948    0.0000 C    0  0  0  0  0  0  0  0  0  0  0  0
   13.8404  -11.6050    0.0000 C    0  0  0  0  0  0  0  0  0  0  0  0
   15.7633  -10.4948    0.0000 C    0  0  0  0  0  0  0  0  0  0  0  0
   16.4042  -11.6050    0.0000 C    0  0  0  0  0  0  0  0  0  0  0  0
   16.4042   -9.3846    0.0000 N    0  0  0  0  0  0  0  0  0  0  0  0
   17.6862   -9.3846    0.0000 O    0  0  0  0  0  0  0  0  0  0  0  0
   18.3271   -8.2744    0.0000 Rh   0  0  0  0  0  0  0  0  0  0  0  0
   19.4373   -8.9154    0.0000 P    0  0  0  0  0  0  0  0  0  0  0  0
   18.7964  -10.0256    0.0000 C    0  0  0  0  0  0  0  0  0  0  0  0
   19.4373  -11.1357    0.0000 C    0  0  0  0  0  0  0  0  0  0  0  0
   17.5144  -10.0256    0.0000 C    0  0  0  0  0  0  0  0  0  0  0  0
   18.7964  -12.2459    0.0000 C    0  0  0  0  0  0  0  0  0  0  0  0
   16.8735  -11.1357    0.0000 C    0  0  0  0  0  0  0  0  0  0  0  0
   17.5144  -12.2459    0.0000 C    0  0  0  0  0  0  0  0  0  0  0  0
   20.0783   -7.8052    0.0000 C    0  0  0  0  0  0  0  0  0  0  0  0
   19.4373   -6.6950    0.0000 C    0  0  0  0  0  0  0  0  0  0  0  0
   21.3602   -7.8052    0.0000 C    0  0  0  0  0  0  0  0  0  0  0  0
   20.0783   -5.5848    0.0000 C    0  0  0  0  0  0  0  0  0  0  0  0
   22.0012   -6.6950    0.0000 C    0  0  0  0  0  0  0  0  0  0  0  0
   21.3602   -5.5848    0.0000 C    0  0  0  0  0  0  0  0  0  0  0  0
   18.9681   -7.1642    0.0000 C    0  0  0  0  0  0  0  0  0  0  0  0
   18.3271   -6.0540    0.0000 C    0  0  0  0  0  0  0  0  0  0  0  0
   18.9681   -4.9438    0.0000 C    0  0  0  0  0  0  0  0  0  0  0  0
   17.0452   -6.0540    0.0000 C    0  0  0  0  0  0  0  0  0  0  0  0
  1  2  1  0  0  0  0
  1  3  2  0  0  0  0
  2  4  2  0  0  0  0
  3  5  1  0  0  0  0
  4  6  1  0  0  0  0
  5  6  2  0  0  0  0
  7  8  1  0  0  0  0
  8  9  2  0  0  0  0
  9 10  1  0  0  0  0
  9 11  1  0  0  0  0
 11 12  1  0  0  0  0
 11 13  2  0  0  0  0
 13 14  1  0  0  0  0
 15 16  1  0  0  0  0
 16 17  2  0  0  0  0
 17 18  1  0  0  0  0
 17 19  1  0  0  0  0
 19 20  1  0  0  0  0
 19 21  2  0  0  0  0
 21 22  1  0  0  0  0
 22 23  1  0  0  0  0
 14 23  1  0  0  0  0
 23 24  1  0  0  0  0
 25 26  1  0  0  0  0
 25 27  2  0  0  0  0
 26 28  2  0  0  0  0
 27 29  1  0  0  0  0
 28 30  1  0  0  0  0
 29 30  2  0  0  0  0
 24 25  1  0  0  0  0
 31 32  1  0  0  0  0
 31 33  2  0  0  0  0
 32 34  2  0  0  0  0
 33 35  1  0  0  0  0
 34 36  1  0  0  0  0
 35 36  2  0  0  0  0
 24 31  1  0  0  0  0
  5 24  1  0  0  0  0
 37 38  1  0  0  0  0
 38 39  1  0  0  0  0
 38 40  1  0  0  0  0
 23 37  1  0  0  0  0
M  END
> <NMREDATA_VERSION>
1.1

> <NMREDATA_LEVEL>
0

> <NMREDATA_SOLVENT>
DCCl3

> <NMREDATA_TEMPERATURE>
298

> <NMREDATA_FORMULA>
C30H39N4O4PRh

> <NMREDATA_SMILES>
CC(C[Rh](P(c1ccccc1)(c1ccccc1)c1ccccc1)(O/N=C(/C(=N/O)/C)\C)O/N=C(/C(=N/O)/C)\C)C

> <NMREDATA_ASSIGNMENT>
Rh23, 2086.00, 23

> <NMREDATA_1D_103Rh>
2086.00, L=Rh23

$$$$

  ACD/LABS03222419132D

 40 42  0  0  0  0  0  0  0  0  1 V2000
   16.7719   -8.2330    0.0000 C    0  0  0  0  0  0  0  0  0  0  0  0
   15.7996   -9.0627    0.0000 C    0  0  0  0  0  0  0  0  0  0  0  0
   17.0043   -6.9760    0.0000 C    0  0  0  0  0  0  0  0  0  0  0  0
   15.6620   -7.5922    0.0000 C    0  0  0  0  0  0  0  0  0  0  0  0
   16.8553  -12.1391    0.0000 C    0  0  0  0  0  0  0  0  0  0  0  0
   17.6688  -13.1216    0.0000 C    0  0  0  0  0  0  0  0  0  0  0  0
   17.2955  -10.9325    0.0000 C    0  0  0  0  0  0  0  0  0  0  0  0
   18.9299  -12.9027    0.0000 C    0  0  0  0  0  0  0  0  0  0  0  0
   18.5488  -10.7091    0.0000 C    0  0  0  0  0  0  0  0  0  0  0  0
   19.3699  -11.6965    0.0000 C    0  0  0  0  0  0  0  0  0  0  0  0
   17.8871   -2.2170    0.0000 O    0  0  0  0  0  0  0  0  0  0  0  0
   18.5287   -3.3271    0.0000 N    0  0  0  0  0  0  0  0  0  0  0  0
   17.8877   -4.4373    0.0000 C    0  0  0  0  0  0  0  0  0  0  0  0
   16.6054   -4.4370    0.0000 C    0  0  0  0  0  0  0  0  0  0  0  0
   18.5219   -5.5436    0.0000 C    0  0  0  0  0  0  0  0  0  0  0  0
   19.8046   -5.5440    0.0000 C    0  0  0  0  0  0  0  0  0  0  0  0
   17.8812   -6.6534    0.0000 N    0  0  0  0  0  0  0  0  0  0  0  0
   18.5229   -7.7641    0.0000 O    0  0  0  0  0  0  0  0  0  0  0  0
   12.1195  -12.2067    0.0000 O    0  0  0  0  0  0  0  0  0  0  0  0
   13.4060  -12.1998    0.0000 N    0  0  0  0  0  0  0  0  0  0  0  0
   14.0470  -11.0896    0.0000 C    0  0  0  0  0  0  0  0  0  0  0  0
   13.4013   -9.9867    0.0000 C    0  0  0  0  0  0  0  0  0  0  0  0
   15.3220  -11.0861    0.0000 C    0  0  0  0  0  0  0  0  0  0  0  0
   15.9639  -12.1964    0.0000 C    0  0  0  0  0  0  0  0  0  0  0  0
   15.9630   -9.9759    0.0000 N    0  0  0  0  0  0  0  0  0  0  0  0
   17.2456   -9.9763    0.0000 O    0  0  0  0  0  0  0  0  0  0  0  0
   17.8821   -8.8739    0.0000 Rh   0  0  0  0  0  0  0  0  0  0  0  0
   18.9842   -9.5102    0.0000 P    0  0  0  0  0  0  0  0  0  0  0  0
   20.0943  -10.1512    0.0000 C    0  0  0  0  0  0  0  0  0  0  0  0
   21.2005   -9.5173    0.0000 C    0  0  0  0  0  0  0  0  0  0  0  0
   20.0984  -11.4261    0.0000 C    0  0  0  0  0  0  0  0  0  0  0  0
   22.3103  -10.1580    0.0000 C    0  0  0  0  0  0  0  0  0  0  0  0
   21.2083  -12.0668    0.0000 C    0  0  0  0  0  0  0  0  0  0  0  0
   22.3144  -11.4329    0.0000 C    0  0  0  0  0  0  0  0  0  0  0  0
   19.8048   -8.5337    0.0000 C    0  0  0  0  0  0  0  0  0  0  0  0
   19.3716   -7.3366    0.0000 C    0  0  0  0  0  0  0  0  0  0  0  0
   21.0704   -8.7512    0.0000 C    0  0  0  0  0  0  0  0  0  0  0  0
   20.1964   -6.3521    0.0000 C    0  0  0  0  0  0  0  0  0  0  0  0
   21.8950   -7.7670    0.0000 C    0  0  0  0  0  0  0  0  0  0  0  0
   21.4540   -6.5654    0.0000 C    0  0  0  0  0  0  0  0  0  0  0  0
  1  2  1  0  0  0  0
  1  3  1  0  0  0  0
  1  4  1  0  0  0  0
  5  6  1  0  0  0  0
  5  7  2  0  0  0  0
  6  8  2  0  0  0  0
  7  9  1  0  0  0  0
  8 10  1  0  0  0  0
  9 10  2  0  0  0  0
 11 12  1  0  0  0  0
 12 13  2  0  0  0  0
 13 14  1  0  0  0  0
 13 15  1  0  0  0  0
 15 16  1  0  0  0  0
 15 17  2  0  0  0  0
 17 18  1  0  0  0  0
 19 20  1  0  0  0  0
 20 21  2  0  0  0  0
 21 22  1  0  0  0  0
 21 23  1  0  0  0  0
 23 24  1  0  0  0  0
 23 25  2  0  0  0  0
 25 26  1  0  0  0  0
 26 27  1  0  0  0  0
 18 27  1  0  0  0  0
 27 28  1  0  0  0  0
 29 30  1  0  0  0  0
 29 31  2  0  0  0  0
 30 32  2  0  0  0  0
 31 33  1  0  0  0  0
 32 34  1  0  0  0  0
 33 34  2  0  0  0  0
 28 29  1  0  0  0  0
 35 36  1  0  0  0  0
 35 37  2  0  0  0  0
 36 38  2  0  0  0  0
 37 39  1  0  0  0  0
 38 40  1  0  0  0  0
 39 40  2  0  0  0  0
 28 35  1  0  0  0  0
  9 28  1  0  0  0  0
  1 27  1  0  0  0  0
M  END
> <NMREDATA_VERSION>
1.1

> <NMREDATA_LEVEL>
0

> <NMREDATA_SOLVENT>
DCCl3

> <NMREDATA_TEMPERATURE>
298

> <NMREDATA_FORMULA>
C30H39N4O4PRh

> <NMREDATA_SMILES>
O/N=C(/C(=N/O[Rh](P(c1ccccc1)(c1ccccc1)c1ccccc1)(C(C)(C)C)O/N=C(/C(=N/O)/C)\C)/C)\C

> <NMREDATA_ASSIGNMENT>
Rh27, 2196.00, 27

> <NMREDATA_1D_103Rh>
2196.00, L=Rh27

$$$$

  ACD/LABS03222419142D

 41 43  0  0  0  0  0  0  0  0  1 V2000
   20.1964   -6.3521    0.0000 C    0  0  0  0  0  0  0  0  0  0  0  0
   21.4540   -6.5654    0.0000 C    0  0  0  0  0  0  0  0  0  0  0  0
   19.3716   -7.3366    0.0000 C    0  0  0  0  0  0  0  0  0  0  0  0
   21.8950   -7.7670    0.0000 C    0  0  0  0  0  0  0  0  0  0  0  0
   19.8048   -8.5337    0.0000 C    0  0  0  0  0  0  0  0  0  0  0  0
   21.0704   -8.7512    0.0000 C    0  0  0  0  0  0  0  0  0  0  0  0
   17.8871   -2.2170    0.0000 O    0  0  0  0  0  0  0  0  0  0  0  0
   18.5287   -3.3271    0.0000 N    0  0  0  0  0  0  0  0  0  0  0  0
   17.8877   -4.4373    0.0000 C    0  0  0  0  0  0  0  0  0  0  0  0
   16.6054   -4.4370    0.0000 C    0  0  0  0  0  0  0  0  0  0  0  0
   18.5219   -5.5436    0.0000 C    0  0  0  0  0  0  0  0  0  0  0  0
   19.8046   -5.5440    0.0000 C    0  0  0  0  0  0  0  0  0  0  0  0
   17.8812   -6.6534    0.0000 N    0  0  0  0  0  0  0  0  0  0  0  0
   18.5229   -7.7641    0.0000 O    0  0  0  0  0  0  0  0  0  0  0  0
   12.1195  -12.2067    0.0000 O    0  0  0  0  0  0  0  0  0  0  0  0
   13.4060  -12.1998    0.0000 N    0  0  0  0  0  0  0  0  0  0  0  0
   14.0470  -11.0896    0.0000 C    0  0  0  0  0  0  0  0  0  0  0  0
   13.4013   -9.9867    0.0000 C    0  0  0  0  0  0  0  0  0  0  0  0
   15.3220  -11.0861    0.0000 C    0  0  0  0  0  0  0  0  0  0  0  0
   15.9639  -12.1964    0.0000 C    0  0  0  0  0  0  0  0  0  0  0  0
   15.9630   -9.9759    0.0000 N    0  0  0  0  0  0  0  0  0  0  0  0
   17.2456   -9.9763    0.0000 O    0  0  0  0  0  0  0  0  0  0  0  0
   17.8821   -8.8739    0.0000 Rh   0  0  0  0  0  0  0  0  0  0  0  0
   18.9842   -9.5102    0.0000 P    0  0  0  0  0  0  0  0  0  0  0  0
   20.0943  -10.1512    0.0000 C    0  0  0  0  0  0  0  0  0  0  0  0
   20.0984  -11.4261    0.0000 C    0  0  0  0  0  0  0  0  0  0  0  0
   21.2005   -9.5173    0.0000 C    0  0  0  0  0  0  0  0  0  0  0  0
   21.2083  -12.0668    0.0000 C    0  0  0  0  0  0  0  0  0  0  0  0
   22.3103  -10.1580    0.0000 C    0  0  0  0  0  0  0  0  0  0  0  0
   22.3144  -11.4329    0.0000 C    0  0  0  0  0  0  0  0  0  0  0  0
   18.5488  -10.7091    0.0000 C    0  0  0  0  0  0  0  0  0  0  0  0
   17.2955  -10.9325    0.0000 C    0  0  0  0  0  0  0  0  0  0  0  0
   19.3699  -11.6965    0.0000 C    0  0  0  0  0  0  0  0  0  0  0  0
   16.8553  -12.1391    0.0000 C    0  0  0  0  0  0  0  0  0  0  0  0
   18.9299  -12.9027    0.0000 C    0  0  0  0  0  0  0  0  0  0  0  0
   17.6688  -13.1216    0.0000 C    0  0  0  0  0  0  0  0  0  0  0  0
   16.7719   -8.2330    0.0000 C    0  0  0  0  0  0  0  0  0  0  0  0
   15.7996   -9.0627    0.0000 C    0  0  0  0  0  0  0  0  0  0  0  0
   17.0043   -6.9760    0.0000 C    0  0  0  0  0  0  0  0  0  0  0  0
   15.6620   -7.5922    0.0000 C    0  0  0  0  0  0  0  0  0  0  0  0
   14.5559   -8.2261    0.0000 O    0  0  0  0  0  0  0  0  0  0  0  0
  1  2  1  0  0  0  0
  1  3  2  0  0  0  0
  2  4  2  0  0  0  0
  3  5  1  0  0  0  0
  4  6  1  0  0  0  0
  5  6  2  0  0  0  0
  7  8  1  0  0  0  0
  8  9  2  0  0  0  0
  9 10  1  0  0  0  0
  9 11  1  0  0  0  0
 11 12  1  0  0  0  0
 11 13  2  0  0  0  0
 13 14  1  0  0  0  0
 15 16  1  0  0  0  0
 16 17  2  0  0  0  0
 17 18  1  0  0  0  0
 17 19  1  0  0  0  0
 19 20  1  0  0  0  0
 19 21  2  0  0  0  0
 21 22  1  0  0  0  0
 22 23  1  0  0  0  0
 14 23  1  0  0  0  0
 23 24  1  0  0  0  0
 25 26  1  0  0  0  0
 25 27  2  0  0  0  0
 26 28  2  0  0  0  0
 27 29  1  0  0  0  0
 28 30  1  0  0  0  0
 29 30  2  0  0  0  0
 24 25  1  0  0  0  0
 31 32  1  0  0  0  0
 31 33  2  0  0  0  0
 32 34  2  0  0  0  0
 33 35  1  0  0  0  0
 34 36  1  0  0  0  0
 35 36  2  0  0  0  0
 24 31  1  0  0  0  0
  5 24  1  0  0  0  0
 23 37  1  0  0  0  0
 37 38  1  0  0  0  0
 37 39  1  0  0  0  0
 37 40  1  0  0  0  0
 40 41  1  0  0  0  0
M  END
> <NMREDATA_VERSION>
1.1

> <NMREDATA_LEVEL>
0

> <NMREDATA_SOLVENT>
DCCl3

> <NMREDATA_TEMPERATURE>
298

> <NMREDATA_FORMULA>
C30H39N4O5PRh

> <NMREDATA_SMILES>
OCC([Rh](P(c1ccccc1)(c1ccccc1)c1ccccc1)(O/N=C(/C(=N/O)/C)\C)O/N=C(/C(=N/O)/C)\C)(C)C

> <NMREDATA_ASSIGNMENT>
Rh23, 2199.00, 23

> <NMREDATA_1D_103Rh>
2199.00, L=Rh23

$$$$

  ACD/LABS03222419142D

 41 43  0  0  0  0  0  0  0  0  1 V2000
   20.1964   -6.3521    0.0000 C    0  0  0  0  0  0  0  0  0  0  0  0
   21.4540   -6.5654    0.0000 C    0  0  0  0  0  0  0  0  0  0  0  0
   19.3716   -7.3366    0.0000 C    0  0  0  0  0  0  0  0  0  0  0  0
   21.8950   -7.7670    0.0000 C    0  0  0  0  0  0  0  0  0  0  0  0
   19.8048   -8.5337    0.0000 C    0  0  0  0  0  0  0  0  0  0  0  0
   21.0704   -8.7512    0.0000 C    0  0  0  0  0  0  0  0  0  0  0  0
   17.8871   -2.2170    0.0000 O    0  0  0  0  0  0  0  0  0  0  0  0
   18.5287   -3.3271    0.0000 N    0  0  0  0  0  0  0  0  0  0  0  0
   17.8877   -4.4373    0.0000 C    0  0  0  0  0  0  0  0  0  0  0  0
   16.6054   -4.4370    0.0000 C    0  0  0  0  0  0  0  0  0  0  0  0
   18.5219   -5.5436    0.0000 C    0  0  0  0  0  0  0  0  0  0  0  0
   19.8046   -5.5440    0.0000 C    0  0  0  0  0  0  0  0  0  0  0  0
   17.8812   -6.6534    0.0000 N    0  0  0  0  0  0  0  0  0  0  0  0
   18.5229   -7.7641    0.0000 O    0  0  0  0  0  0  0  0  0  0  0  0
   12.1195  -12.2067    0.0000 O    0  0  0  0  0  0  0  0  0  0  0  0
   13.4060  -12.1998    0.0000 N    0  0  0  0  0  0  0  0  0  0  0  0
   14.0470  -11.0896    0.0000 C    0  0  0  0  0  0  0  0  0  0  0  0
   13.4013   -9.9867    0.0000 C    0  0  0  0  0  0  0  0  0  0  0  0
   15.3220  -11.0861    0.0000 C    0  0  0  0  0  0  0  0  0  0  0  0
   15.9639  -12.1964    0.0000 C    0  0  0  0  0  0  0  0  0  0  0  0
   15.9630   -9.9759    0.0000 N    0  0  0  0  0  0  0  0  0  0  0  0
   17.2456   -9.9763    0.0000 O    0  0  0  0  0  0  0  0  0  0  0  0
   17.8821   -8.8739    0.0000 Rh   0  0  0  0  0  0  0  0  0  0  0  0
   18.9842   -9.5102    0.0000 P    0  0  0  0  0  0  0  0  0  0  0  0
   20.0943  -10.1512    0.0000 C    0  0  0  0  0  0  0  0  0  0  0  0
   20.0984  -11.4261    0.0000 C    0  0  0  0  0  0  0  0  0  0  0  0
   21.2005   -9.5173    0.0000 C    0  0  0  0  0  0  0  0  0  0  0  0
   21.2083  -12.0668    0.0000 C    0  0  0  0  0  0  0  0  0  0  0  0
   22.3103  -10.1580    0.0000 C    0  0  0  0  0  0  0  0  0  0  0  0
   22.3144  -11.4329    0.0000 C    0  0  0  0  0  0  0  0  0  0  0  0
   18.5488  -10.7091    0.0000 C    0  0  0  0  0  0  0  0  0  0  0  0
   17.2955  -10.9325    0.0000 C    0  0  0  0  0  0  0  0  0  0  0  0
   19.3699  -11.6965    0.0000 C    0  0  0  0  0  0  0  0  0  0  0  0
   16.8553  -12.1391    0.0000 C    0  0  0  0  0  0  0  0  0  0  0  0
   18.9299  -12.9027    0.0000 C    0  0  0  0  0  0  0  0  0  0  0  0
   17.6688  -13.1216    0.0000 C    0  0  0  0  0  0  0  0  0  0  0  0
   16.7719   -8.2330    0.0000 C    0  0  0  0  0  0  0  0  0  0  0  0
   15.7996   -9.0627    0.0000 C    0  0  0  0  0  0  0  0  0  0  0  0
   17.0043   -6.9760    0.0000 C    0  0  0  0  0  0  0  0  0  0  0  0
   15.6620   -7.5922    0.0000 C    0  0  0  0  0  0  0  0  0  0  0  0
   14.5559   -8.2261    0.0000 O    0  0  0  0  0  0  0  0  0  0  0  0
  1  2  1  0  0  0  0
  1  3  2  0  0  0  0
  2  4  2  0  0  0  0
  3  5  1  0  0  0  0
  4  6  1  0  0  0  0
  5  6  2  0  0  0  0
  7  8  1  0  0  0  0
  8  9  2  0  0  0  0
  9 10  1  0  0  0  0
  9 11  1  0  0  0  0
 11 12  1  0  0  0  0
 11 13  2  0  0  0  0
 13 14  1  0  0  0  0
 15 16  1  0  0  0  0
 16 17  2  0  0  0  0
 17 18  1  0  0  0  0
 17 19  1  0  0  0  0
 19 20  1  0  0  0  0
 19 21  2  0  0  0  0
 21 22  1  0  0  0  0
 22 23  1  0  0  0  0
 14 23  1  0  0  0  0
 23 24  1  0  0  0  0
 25 26  1  0  0  0  0
 25 27  2  0  0  0  0
 26 28  2  0  0  0  0
 27 29  1  0  0  0  0
 28 30  1  0  0  0  0
 29 30  2  0  0  0  0
 24 25  1  0  0  0  0
 31 32  1  0  0  0  0
 31 33  2  0  0  0  0
 32 34  2  0  0  0  0
 33 35  1  0  0  0  0
 34 36  1  0  0  0  0
 35 36  2  0  0  0  0
 24 31  1  0  0  0  0
  5 24  1  0  0  0  0
 23 37  1  0  0  0  0
 37 38  1  0  0  0  0
 37 39  1  0  0  0  0
 37 40  1  0  0  0  0
 40 41  1  0  0  0  0
M  END
> <NMREDATA_VERSION>
1.1

> <NMREDATA_LEVEL>
0

> <NMREDATA_SOLVENT>
DCCl3

> <NMREDATA_TEMPERATURE>
298

> <NMREDATA_FORMULA>
C30H39N4O5PRh

> <NMREDATA_SMILES>
OCC([Rh](P(c1ccccc1)(c1ccccc1)c1ccccc1)(O/N=C(/C(=N/O)/C)\C)O/N=C(/C(=N/O)/C)\C)(C)C

> <NMREDATA_ASSIGNMENT>
Rh23, 2212.00, 23

> <NMREDATA_1D_103Rh>
2212.00, L=Rh23

$$$$

  ACD/LABS03222419142D

 42 45  0  0  0  0  0  0  0  0  1 V2000
   20.1964   -6.3521    0.0000 C    0  0  0  0  0  0  0  0  0  0  0  0
   21.4540   -6.5654    0.0000 C    0  0  0  0  0  0  0  0  0  0  0  0
   19.3716   -7.3366    0.0000 C    0  0  0  0  0  0  0  0  0  0  0  0
   21.8950   -7.7670    0.0000 C    0  0  0  0  0  0  0  0  0  0  0  0
   19.8048   -8.5337    0.0000 C    0  0  0  0  0  0  0  0  0  0  0  0
   21.0704   -8.7512    0.0000 C    0  0  0  0  0  0  0  0  0  0  0  0
   17.8871   -2.2170    0.0000 O    0  0  0  0  0  0  0  0  0  0  0  0
   18.5287   -3.3271    0.0000 N    0  0  0  0  0  0  0  0  0  0  0  0
   17.8877   -4.4373    0.0000 C    0  0  0  0  0  0  0  0  0  0  0  0
   16.6054   -4.4370    0.0000 C    0  0  0  0  0  0  0  0  0  0  0  0
   18.5219   -5.5436    0.0000 C    0  0  0  0  0  0  0  0  0  0  0  0
   19.8046   -5.5440    0.0000 C    0  0  0  0  0  0  0  0  0  0  0  0
   17.8812   -6.6534    0.0000 N    0  0  0  0  0  0  0  0  0  0  0  0
   18.5229   -7.7641    0.0000 O    0  0  0  0  0  0  0  0  0  0  0  0
   12.1195  -12.2067    0.0000 O    0  0  0  0  0  0  0  0  0  0  0  0
   13.4060  -12.1998    0.0000 N    0  0  0  0  0  0  0  0  0  0  0  0
   14.0470  -11.0896    0.0000 C    0  0  0  0  0  0  0  0  0  0  0  0
   13.4013   -9.9867    0.0000 C    0  0  0  0  0  0  0  0  0  0  0  0
   15.3220  -11.0861    0.0000 C    0  0  0  0  0  0  0  0  0  0  0  0
   15.9639  -12.1964    0.0000 C    0  0  0  0  0  0  0  0  0  0  0  0
   15.9630   -9.9759    0.0000 N    0  0  0  0  0  0  0  0  0  0  0  0
   17.2456   -9.9763    0.0000 O    0  0  0  0  0  0  0  0  0  0  0  0
   17.8821   -8.8739    0.0000 Rh   0  0  0  0  0  0  0  0  0  0  0  0
   18.9842   -9.5102    0.0000 P    0  0  0  0  0  0  0  0  0  0  0  0
   20.0943  -10.1512    0.0000 C    0  0  0  0  0  0  0  0  0  0  0  0
   20.0984  -11.4261    0.0000 C    0  0  0  0  0  0  0  0  0  0  0  0
   21.2005   -9.5173    0.0000 C    0  0  0  0  0  0  0  0  0  0  0  0
   21.2083  -12.0668    0.0000 C    0  0  0  0  0  0  0  0  0  0  0  0
   22.3103  -10.1580    0.0000 C    0  0  0  0  0  0  0  0  0  0  0  0
   22.3144  -11.4329    0.0000 C    0  0  0  0  0  0  0  0  0  0  0  0
   18.5488  -10.7091    0.0000 C    0  0  0  0  0  0  0  0  0  0  0  0
   17.2955  -10.9325    0.0000 C    0  0  0  0  0  0  0  0  0  0  0  0
   19.3699  -11.6965    0.0000 C    0  0  0  0  0  0  0  0  0  0  0  0
   16.8553  -12.1391    0.0000 C    0  0  0  0  0  0  0  0  0  0  0  0
   18.9299  -12.9027    0.0000 C    0  0  0  0  0  0  0  0  0  0  0  0
   17.6688  -13.1216    0.0000 C    0  0  0  0  0  0  0  0  0  0  0  0
   16.7719   -8.2330    0.0000 C    0  0  0  0  0  0  0  0  0  0  0  0
   15.6617   -8.8739    0.0000 C    0  0  0  0  0  0  0  0  0  0  0  0
   16.7719   -6.9510    0.0000 C    0  0  0  0  0  0  0  0  0  0  0  0
   14.5515   -8.2328    0.0000 C    0  0  0  0  0  0  0  0  0  0  0  0
   15.6617   -6.3100    0.0000 C    0  0  0  0  0  0  0  0  0  0  0  0
   14.5515   -6.9509    0.0000 C    0  0  0  0  0  0  0  0  0  0  0  0
  1  2  1  0  0  0  0
  1  3  2  0  0  0  0
  2  4  2  0  0  0  0
  3  5  1  0  0  0  0
  4  6  1  0  0  0  0
  5  6  2  0  0  0  0
  7  8  1  0  0  0  0
  8  9  2  0  0  0  0
  9 10  1  0  0  0  0
  9 11  1  0  0  0  0
 11 12  1  0  0  0  0
 11 13  2  0  0  0  0
 13 14  1  0  0  0  0
 15 16  1  0  0  0  0
 16 17  2  0  0  0  0
 17 18  1  0  0  0  0
 17 19  1  0  0  0  0
 19 20  1  0  0  0  0
 19 21  2  0  0  0  0
 21 22  1  0  0  0  0
 22 23  1  0  0  0  0
 14 23  1  0  0  0  0
 23 24  1  0  0  0  0
 25 26  1  0  0  0  0
 25 27  2  0  0  0  0
 26 28  2  0  0  0  0
 27 29  1  0  0  0  0
 28 30  1  0  0  0  0
 29 30  2  0  0  0  0
 24 25  1  0  0  0  0
 31 32  1  0  0  0  0
 31 33  2  0  0  0  0
 32 34  2  0  0  0  0
 33 35  1  0  0  0  0
 34 36  1  0  0  0  0
 35 36  2  0  0  0  0
 24 31  1  0  0  0  0
  5 24  1  0  0  0  0
 37 38  1  0  0  0  0
 37 39  1  0  0  0  0
 38 40  1  0  0  0  0
 39 41  1  0  0  0  0
 40 42  1  0  0  0  0
 41 42  1  0  0  0  0
 23 37  1  0  0  0  0
M  END
> <NMREDATA_VERSION>
1.1

> <NMREDATA_LEVEL>
0

> <NMREDATA_SOLVENT>
DCCl3

> <NMREDATA_TEMPERATURE>
298

> <NMREDATA_FORMULA>
C32H41N4O4PRh

> <NMREDATA_SMILES>
O/N=C(/C(=N/O[Rh](P(c1ccccc1)(c1ccccc1)c1ccccc1)(C1CCCCC1)O/N=C(/C(=N/O)/C)\C)/C)\C

> <NMREDATA_ASSIGNMENT>
Rh23, 2132.00, 23

> <NMREDATA_1D_103Rh>
2132.00, L=Rh23

$$$$

  ACD/LABS03222419152D

 43 46  0  0  0  0  0  0  0  0  1 V2000
   16.9167  -11.6305    0.0000 C    0  0  0  0  0  0  0  0  0  0  0  0
   17.3496  -12.8417    0.0000 C    0  0  0  0  0  0  0  0  0  0  0  0
   17.7351  -10.6548    0.0000 C    0  0  0  0  0  0  0  0  0  0  0  0
   18.6113  -13.0607    0.0000 C    0  0  0  0  0  0  0  0  0  0  0  0
   19.0011  -10.8813    0.0000 C    0  0  0  0  0  0  0  0  0  0  0  0
   19.4337  -12.0922    0.0000 C    0  0  0  0  0  0  0  0  0  0  0  0
   19.0391   -2.2618    0.0000 O    0  0  0  0  0  0  0  0  0  0  0  0
   19.6728   -3.3767    0.0000 N    0  0  0  0  0  0  0  0  0  0  0  0
   19.0312   -4.4875    0.0000 C    0  0  0  0  0  0  0  0  0  0  0  0
   17.7509   -4.4763    0.0000 C    0  0  0  0  0  0  0  0  0  0  0  0
   19.6648   -5.6025    0.0000 C    0  0  0  0  0  0  0  0  0  0  0  0
   20.9479   -5.6020    0.0000 C    0  0  0  0  0  0  0  0  0  0  0  0
   19.0186   -6.7059    0.0000 N    0  0  0  0  0  0  0  0  0  0  0  0
   19.6522   -7.8208    0.0000 O    0  0  0  0  0  0  0  0  0  0  0  0
   11.4314  -11.9945    0.0000 O    0  0  0  0  0  0  0  0  0  0  0  0
   12.6854  -12.2175    0.0000 N    0  0  0  0  0  0  0  0  0  0  0  0
   13.5233  -11.2410    0.0000 C    0  0  0  0  0  0  0  0  0  0  0  0
   13.0829  -10.0341    0.0000 C    0  0  0  0  0  0  0  0  0  0  0  0
   14.7773  -11.4640    0.0000 C    0  0  0  0  0  0  0  0  0  0  0  0
   15.2133  -12.6633    0.0000 C    0  0  0  0  0  0  0  0  0  0  0  0
   15.6034  -10.4838    0.0000 N    0  0  0  0  0  0  0  0  0  0  0  0
   16.8692  -10.7105    0.0000 O    0  0  0  0  0  0  0  0  0  0  0  0
   19.0018   -8.9162    0.0000 Rh   0  0  0  0  0  0  0  0  0  0  0  0
   19.8268   -9.9010    0.0000 P    0  0  0  0  0  0  0  0  0  0  0  0
   20.6521  -10.8856    0.0000 C    0  0  0  0  0  0  0  0  0  0  0  0
   21.9108  -10.6721    0.0000 C    0  0  0  0  0  0  0  0  0  0  0  0
   20.2109  -12.0878    0.0000 C    0  0  0  0  0  0  0  0  0  0  0  0
   22.7315  -11.6494    0.0000 C    0  0  0  0  0  0  0  0  0  0  0  0
   21.0286  -13.0767    0.0000 C    0  0  0  0  0  0  0  0  0  0  0  0
   22.2946  -12.8591    0.0000 C    0  0  0  0  0  0  0  0  0  0  0  0
   20.8116   -9.0760    0.0000 C    0  0  0  0  0  0  0  0  0  0  0  0
   20.5905   -7.8216    0.0000 C    0  0  0  0  0  0  0  0  0  0  0  0
   22.0135   -9.5169    0.0000 C    0  0  0  0  0  0  0  0  0  0  0  0
   21.5797   -7.0042    0.0000 C    0  0  0  0  0  0  0  0  0  0  0  0
   23.0025   -8.6991    0.0000 C    0  0  0  0  0  0  0  0  0  0  0  0
   22.7773   -7.4375    0.0000 C    0  0  0  0  0  0  0  0  0  0  0  0
   18.1854   -7.9470    0.0000 C    0  0  0  0  0  0  0  0  0  0  0  0
   16.9194   -8.1647    0.0000 C    0  0  0  0  0  0  0  0  0  0  0  0
   16.4857   -9.3625    0.0000 C    0  0  0  0  0  0  0  0  0  0  0  0
   16.1016   -7.1757    0.0000 C    0  0  0  0  0  0  0  0  0  0  0  0
   15.2241   -9.5877    0.0000 C    0  0  0  0  0  0  0  0  0  0  0  0
   14.8475   -7.3966    0.0000 C    0  0  0  0  0  0  0  0  0  0  0  0
   14.4063   -8.5987    0.0000 C    0  0  0  0  0  0  0  0  0  0  0  0
  1  2  1  0  0  0  0
  1  3  2  0  0  0  0
  2  4  2  0  0  0  0
  3  5  1  0  0  0  0
  4  6  1  0  0  0  0
  5  6  2  0  0  0  0
  7  8  1  0  0  0  0
  8  9  2  0  0  0  0
  9 10  1  0  0  0  0
  9 11  1  0  0  0  0
 11 12  1  0  0  0  0
 11 13  2  0  0  0  0
 13 14  1  0  0  0  0
 15 16  1  0  0  0  0
 16 17  2  0  0  0  0
 17 18  1  0  0  0  0
 17 19  1  0  0  0  0
 19 20  1  0  0  0  0
 19 21  2  0  0  0  0
 21 22  1  0  0  0  0
 22 23  1  0  0  0  0
 14 23  1  0  0  0  0
 23 24  1  0  0  0  0
 25 26  1  0  0  0  0
 25 27  2  0  0  0  0
 26 28  2  0  0  0  0
 27 29  1  0  0  0  0
 28 30  1  0  0  0  0
 29 30  2  0  0  0  0
 24 25  1  0  0  0  0
 31 32  1  0  0  0  0
 31 33  2  0  0  0  0
 32 34  2  0  0  0  0
 33 35  1  0  0  0  0
 34 36  1  0  0  0  0
 35 36  2  0  0  0  0
 24 31  1  0  0  0  0
  5 24  1  0  0  0  0
 23 37  1  0  0  0  0
 38 39  1  0  0  0  0
 38 40  2  0  0  0  0
 39 41  2  0  0  0  0
 40 42  1  0  0  0  0
 41 43  1  0  0  0  0
 42 43  2  0  0  0  0
 37 38  1  0  0  0  0
M  END
> <NMREDATA_VERSION>
1.1

> <NMREDATA_LEVEL>
0

> <NMREDATA_SOLVENT>
DCCl3

> <NMREDATA_TEMPERATURE>
298

> <NMREDATA_FORMULA>
C33H37N4O4PRh

> <NMREDATA_SMILES>
O/N=C(/C(=N/O[Rh](P(c1ccccc1)(c1ccccc1)c1ccccc1)(Cc1ccccc1)O/N=C(/C(=N/O)/C)\C)/C)\C

> <NMREDATA_ASSIGNMENT>
Rh23, 2066.00, 23

> <NMREDATA_1D_103Rh>
2066.00, L=Rh23

$$$$

  ACD/LABS03222419162D

 22 21  0  0  0  0  0  0  0  0  1 V2000
   17.9638   -2.4668    0.0000 O    0  0  0  0  0  0  0  0  0  0  0  0
   18.6048   -3.5769    0.0000 N    0  0  0  0  0  0  0  0  0  0  0  0
   17.9638   -4.6871    0.0000 C    0  0  0  0  0  0  0  0  0  0  0  0
   16.6819   -4.6871    0.0000 C    0  0  0  0  0  0  0  0  0  0  0  0
   18.6048   -5.7973    0.0000 C    0  0  0  0  0  0  0  0  0  0  0  0
   19.8867   -5.7973    0.0000 C    0  0  0  0  0  0  0  0  0  0  0  0
   17.9638   -6.9075    0.0000 N    0  0  0  0  0  0  0  0  0  0  0  0
   18.6048   -8.0177    0.0000 O    0  0  0  0  0  0  0  0  0  0  0  0
   12.1952  -12.4584    0.0000 O    0  0  0  0  0  0  0  0  0  0  0  0
   13.4771  -12.4584    0.0000 N    0  0  0  0  0  0  0  0  0  0  0  0
   14.1180  -11.3482    0.0000 C    0  0  0  0  0  0  0  0  0  0  0  0
   13.4771  -10.2380    0.0000 C    0  0  0  0  0  0  0  0  0  0  0  0
   15.4000  -11.3482    0.0000 C    0  0  0  0  0  0  0  0  0  0  0  0
   16.0409  -12.4584    0.0000 C    0  0  0  0  0  0  0  0  0  0  0  0
   16.0409  -10.2380    0.0000 N    0  0  0  0  0  0  0  0  0  0  0  0
   17.3229  -10.2380    0.0000 O    0  0  0  0  0  0  0  0  0  0  0  0
   17.9638   -9.1278    0.0000 Rh   0  0  0  0  0  0  0  0  0  0  0  0
   19.0740   -9.7688    0.0000 P    0  0  0  0  0  0  0  0  0  0  0  0
   19.7150   -8.6586    0.0000 C    0  0  0  0  0  0  0  0  0  0  0  0
   16.8536   -8.4869    0.0000 C    0  0  0  0  0  0  0  0  0  0  0  0
   18.4330  -10.8790    0.0000 C    0  0  0  0  0  0  0  0  0  0  0  0
   20.1842  -10.4098    0.0000 C    0  0  0  0  0  0  0  0  0  0  0  0
  1  2  1  0  0  0  0
  2  3  2  0  0  0  0
  3  4  1  0  0  0  0
  3  5  1  0  0  0  0
  5  6  1  0  0  0  0
  5  7  2  0  0  0  0
  7  8  1  0  0  0  0
  9 10  1  0  0  0  0
 10 11  2  0  0  0  0
 11 12  1  0  0  0  0
 11 13  1  0  0  0  0
 13 14  1  0  0  0  0
 13 15  2  0  0  0  0
 15 16  1  0  0  0  0
 16 17  1  0  0  0  0
  8 17  1  0  0  0  0
 17 18  1  0  0  0  0
 18 19  1  0  0  0  0
 17 20  1  0  0  0  0
 18 21  1  0  0  0  0
 18 22  1  0  0  0  0
M  END
> <NMREDATA_VERSION>
1.1

> <NMREDATA_LEVEL>
0

> <NMREDATA_SOLVENT>
DCCl3

> <NMREDATA_TEMPERATURE>
298

> <NMREDATA_FORMULA>
C12H27N4O4PRh

> <NMREDATA_SMILES>
O/N=C(/C(=N/O[Rh](P(C)(C)C)(O/N=C(/C(=N/O)/C)\C)C)/C)\C

> <NMREDATA_ASSIGNMENT>
Rh17, 1927.00, 17

> <NMREDATA_1D_103Rh>
1927.00, L=Rh17

$$$$

  ACD/LABS03222419162D

 40 42  0  0  0  0  0  0  0  0  1 V2000
   17.9638   -2.4668    0.0000 O    0  0  0  0  0  0  0  0  0  0  0  0
   18.6048   -3.5769    0.0000 N    0  0  0  0  0  0  0  0  0  0  0  0
   17.9638   -4.6871    0.0000 C    0  0  0  0  0  0  0  0  0  0  0  0
   16.6819   -4.6871    0.0000 C    0  0  0  0  0  0  0  0  0  0  0  0
   18.6048   -5.7973    0.0000 C    0  0  0  0  0  0  0  0  0  0  0  0
   19.8867   -5.7973    0.0000 C    0  0  0  0  0  0  0  0  0  0  0  0
   17.9638   -6.9075    0.0000 N    0  0  0  0  0  0  0  0  0  0  0  0
   18.6048   -8.0177    0.0000 O    0  0  0  0  0  0  0  0  0  0  0  0
   12.1952  -12.4584    0.0000 O    0  0  0  0  0  0  0  0  0  0  0  0
   13.4771  -12.4584    0.0000 N    0  0  0  0  0  0  0  0  0  0  0  0
   14.1180  -11.3482    0.0000 C    0  0  0  0  0  0  0  0  0  0  0  0
   13.4771  -10.2380    0.0000 C    0  0  0  0  0  0  0  0  0  0  0  0
   15.4000  -11.3482    0.0000 C    0  0  0  0  0  0  0  0  0  0  0  0
   16.0409  -12.4584    0.0000 C    0  0  0  0  0  0  0  0  0  0  0  0
   16.0409  -10.2380    0.0000 N    0  0  0  0  0  0  0  0  0  0  0  0
   17.3229  -10.2380    0.0000 O    0  0  0  0  0  0  0  0  0  0  0  0
   17.9638   -9.1278    0.0000 Rh   0  0  0  0  0  0  0  0  0  0  0  0
   19.0740   -9.7688    0.0000 P    0  0  0  0  0  0  0  0  0  0  0  0
   19.7150   -8.6586    0.0000 O    0  0  0  0  0  0  0  0  0  0  0  0
   16.8536   -8.4869    0.0000 C    0  0  0  0  0  0  0  0  0  0  0  0
   18.4330  -10.8790    0.0000 O    0  0  0  0  0  0  0  0  0  0  0  0
   20.1842  -10.4098    0.0000 O    0  0  0  0  0  0  0  0  0  0  0  0
   20.9969   -8.6586    0.0000 C    0  0  0  0  0  0  0  0  0  0  0  0
   21.6379   -7.5484    0.0000 C    0  0  0  0  0  0  0  0  0  0  0  0
   21.6379   -9.7689    0.0000 C    0  0  0  0  0  0  0  0  0  0  0  0
   22.9199   -7.5485    0.0000 C    0  0  0  0  0  0  0  0  0  0  0  0
   22.9198   -9.7689    0.0000 C    0  0  0  0  0  0  0  0  0  0  0  0
   23.5608   -8.6587    0.0000 C    0  0  0  0  0  0  0  0  0  0  0  0
   20.1842  -11.6917    0.0000 C    0  0  0  0  0  0  0  0  0  0  0  0
   21.2944  -12.3327    0.0000 C    0  0  0  0  0  0  0  0  0  0  0  0
   19.0740  -12.3327    0.0000 C    0  0  0  0  0  0  0  0  0  0  0  0
   21.2943  -13.6147    0.0000 C    0  0  0  0  0  0  0  0  0  0  0  0
   19.0740  -13.6146    0.0000 C    0  0  0  0  0  0  0  0  0  0  0  0
   20.1841  -14.2556    0.0000 C    0  0  0  0  0  0  0  0  0  0  0  0
   19.0740  -11.9892    0.0000 C    0  0  0  0  0  0  0  0  0  0  0  0
   20.3559  -11.9892    0.0000 C    0  0  0  0  0  0  0  0  0  0  0  0
   18.4330  -13.0994    0.0000 C    0  0  0  0  0  0  0  0  0  0  0  0
   20.9969  -13.0995    0.0000 C    0  0  0  0  0  0  0  0  0  0  0  0
   19.0740  -14.2096    0.0000 C    0  0  0  0  0  0  0  0  0  0  0  0
   20.3559  -14.2096    0.0000 C    0  0  0  0  0  0  0  0  0  0  0  0
  1  2  1  0  0  0  0
  2  3  2  0  0  0  0
  3  4  1  0  0  0  0
  3  5  1  0  0  0  0
  5  6  1  0  0  0  0
  5  7  2  0  0  0  0
  7  8  1  0  0  0  0
  9 10  1  0  0  0  0
 10 11  2  0  0  0  0
 11 12  1  0  0  0  0
 11 13  1  0  0  0  0
 13 14  1  0  0  0  0
 13 15  2  0  0  0  0
 15 16  1  0  0  0  0
 16 17  1  0  0  0  0
  8 17  1  0  0  0  0
 17 18  1  0  0  0  0
 18 19  1  0  0  0  0
 17 20  1  0  0  0  0
 18 21  1  0  0  0  0
 18 22  1  0  0  0  0
 23 24  1  0  0  0  0
 23 25  2  0  0  0  0
 24 26  2  0  0  0  0
 25 27  1  0  0  0  0
 26 28  1  0  0  0  0
 27 28  2  0  0  0  0
 19 23  1  0  0  0  0
 29 30  1  0  0  0  0
 29 31  2  0  0  0  0
 30 32  2  0  0  0  0
 31 33  1  0  0  0  0
 32 34  1  0  0  0  0
 33 34  2  0  0  0  0
 22 29  1  0  0  0  0
 35 36  1  0  0  0  0
 35 37  2  0  0  0  0
 36 38  2  0  0  0  0
 37 39  1  0  0  0  0
 38 40  1  0  0  0  0
 39 40  2  0  0  0  0
 21 35  1  0  0  0  0
M  END
> <NMREDATA_VERSION>
1.1

> <NMREDATA_LEVEL>
0

> <NMREDATA_SOLVENT>
DCCl3

> <NMREDATA_TEMPERATURE>
298

> <NMREDATA_FORMULA>
C27H33N4O7PRh

> <NMREDATA_SMILES>
O/N=C(/C(=N/O[Rh](P(Oc1ccccc1)(Oc1ccccc1)Oc1ccccc1)(O/N=C(/C(=N/O)/C)\C)C)/C)\C

> <NMREDATA_ASSIGNMENT>
Rh17, 1928.00, 17

> <NMREDATA_1D_103Rh>
1928.00, L=Rh17

$$$$

  ACD/LABS03222419172D

 23 22  0  0  0  0  0  0  0  0  1 V2000
   17.9638   -2.4668    0.0000 O    0  0  0  0  0  0  0  0  0  0  0  0
   18.6048   -3.5769    0.0000 N    0  0  0  0  0  0  0  0  0  0  0  0
   17.9638   -4.6871    0.0000 C    0  0  0  0  0  0  0  0  0  0  0  0
   16.6819   -4.6871    0.0000 C    0  0  0  0  0  0  0  0  0  0  0  0
   18.6048   -5.7973    0.0000 C    0  0  0  0  0  0  0  0  0  0  0  0
   19.8867   -5.7973    0.0000 C    0  0  0  0  0  0  0  0  0  0  0  0
   17.9638   -6.9075    0.0000 N    0  0  0  0  0  0  0  0  0  0  0  0
   18.6048   -8.0177    0.0000 O    0  0  0  0  0  0  0  0  0  0  0  0
   12.1952  -12.4584    0.0000 O    0  0  0  0  0  0  0  0  0  0  0  0
   13.4771  -12.4584    0.0000 N    0  0  0  0  0  0  0  0  0  0  0  0
   14.1180  -11.3482    0.0000 C    0  0  0  0  0  0  0  0  0  0  0  0
   13.4771  -10.2380    0.0000 C    0  0  0  0  0  0  0  0  0  0  0  0
   15.4000  -11.3482    0.0000 C    0  0  0  0  0  0  0  0  0  0  0  0
   16.0409  -12.4584    0.0000 C    0  0  0  0  0  0  0  0  0  0  0  0
   16.0409  -10.2380    0.0000 N    0  0  0  0  0  0  0  0  0  0  0  0
   17.3229  -10.2380    0.0000 O    0  0  0  0  0  0  0  0  0  0  0  0
   17.9638   -9.1278    0.0000 Rh   0  0  0  0  0  0  0  0  0  0  0  0
   19.0740   -9.7688    0.0000 P    0  0  0  0  0  0  0  0  0  0  0  0
   19.7150   -8.6586    0.0000 C    0  0  0  0  0  0  0  0  0  0  0  0
   16.8536   -8.4869    0.0000 C    0  0  0  0  0  0  0  0  0  0  0  0
   18.4330  -10.8790    0.0000 C    0  0  0  0  0  0  0  0  0  0  0  0
   20.1842  -10.4098    0.0000 C    0  0  0  0  0  0  0  0  0  0  0  0
   16.8536   -7.2050    0.0000 C    0  0  0  0  0  0  0  0  0  0  0  0
  1  2  1  0  0  0  0
  2  3  2  0  0  0  0
  3  4  1  0  0  0  0
  3  5  1  0  0  0  0
  5  6  1  0  0  0  0
  5  7  2  0  0  0  0
  7  8  1  0  0  0  0
  9 10  1  0  0  0  0
 10 11  2  0  0  0  0
 11 12  1  0  0  0  0
 11 13  1  0  0  0  0
 13 14  1  0  0  0  0
 13 15  2  0  0  0  0
 15 16  1  0  0  0  0
 16 17  1  0  0  0  0
  8 17  1  0  0  0  0
 17 18  1  0  0  0  0
 18 19  1  0  0  0  0
 17 20  1  0  0  0  0
 18 21  1  0  0  0  0
 18 22  1  0  0  0  0
 20 23  1  0  0  0  0
M  END
> <NMREDATA_VERSION>
1.1

> <NMREDATA_LEVEL>
0

> <NMREDATA_SOLVENT>
DCCl3

> <NMREDATA_TEMPERATURE>
298

> <NMREDATA_FORMULA>
C13H29N4O4PRh

> <NMREDATA_SMILES>
O/N=C(/C(=N/O[Rh](P(C)(C)C)(O/N=C(/C(=N/O)/C)\C)CC)/C)\C

> <NMREDATA_ASSIGNMENT>
Rh17, 1920.00, 17

> <NMREDATA_1D_103Rh>
1920.00, L=Rh17

$$$$

  ACD/LABS03222419172D

 41 43  0  0  0  0  0  0  0  0  1 V2000
   17.9638   -2.4668    0.0000 O    0  0  0  0  0  0  0  0  0  0  0  0
   18.6048   -3.5769    0.0000 N    0  0  0  0  0  0  0  0  0  0  0  0
   17.9638   -4.6871    0.0000 C    0  0  0  0  0  0  0  0  0  0  0  0
   16.6819   -4.6871    0.0000 C    0  0  0  0  0  0  0  0  0  0  0  0
   18.6048   -5.7973    0.0000 C    0  0  0  0  0  0  0  0  0  0  0  0
   19.8867   -5.7973    0.0000 C    0  0  0  0  0  0  0  0  0  0  0  0
   17.9638   -6.9075    0.0000 N    0  0  0  0  0  0  0  0  0  0  0  0
   18.6048   -8.0177    0.0000 O    0  0  0  0  0  0  0  0  0  0  0  0
   12.1952  -12.4584    0.0000 O    0  0  0  0  0  0  0  0  0  0  0  0
   13.4771  -12.4584    0.0000 N    0  0  0  0  0  0  0  0  0  0  0  0
   14.1180  -11.3482    0.0000 C    0  0  0  0  0  0  0  0  0  0  0  0
   13.4771  -10.2380    0.0000 C    0  0  0  0  0  0  0  0  0  0  0  0
   15.4000  -11.3482    0.0000 C    0  0  0  0  0  0  0  0  0  0  0  0
   16.0409  -12.4584    0.0000 C    0  0  0  0  0  0  0  0  0  0  0  0
   16.0409  -10.2380    0.0000 N    0  0  0  0  0  0  0  0  0  0  0  0
   17.3229  -10.2380    0.0000 O    0  0  0  0  0  0  0  0  0  0  0  0
   17.9638   -9.1278    0.0000 Rh   0  0  0  0  0  0  0  0  0  0  0  0
   19.0740   -9.7688    0.0000 P    0  0  0  0  0  0  0  0  0  0  0  0
   19.7150   -8.6586    0.0000 O    0  0  0  0  0  0  0  0  0  0  0  0
   16.8536   -8.4869    0.0000 C    0  0  0  0  0  0  0  0  0  0  0  0
   18.4330  -10.8790    0.0000 O    0  0  0  0  0  0  0  0  0  0  0  0
   20.1842  -10.4098    0.0000 O    0  0  0  0  0  0  0  0  0  0  0  0
   16.8536   -7.2050    0.0000 C    0  0  0  0  0  0  0  0  0  0  0  0
   20.9969   -8.6586    0.0000 C    0  0  0  0  0  0  0  0  0  0  0  0
   21.6379   -7.5484    0.0000 C    0  0  0  0  0  0  0  0  0  0  0  0
   21.6379   -9.7689    0.0000 C    0  0  0  0  0  0  0  0  0  0  0  0
   22.9199   -7.5485    0.0000 C    0  0  0  0  0  0  0  0  0  0  0  0
   22.9198   -9.7689    0.0000 C    0  0  0  0  0  0  0  0  0  0  0  0
   23.5608   -8.6587    0.0000 C    0  0  0  0  0  0  0  0  0  0  0  0
   20.1842  -11.6917    0.0000 C    0  0  0  0  0  0  0  0  0  0  0  0
   21.2944  -12.3327    0.0000 C    0  0  0  0  0  0  0  0  0  0  0  0
   19.0740  -12.3327    0.0000 C    0  0  0  0  0  0  0  0  0  0  0  0
   21.2943  -13.6147    0.0000 C    0  0  0  0  0  0  0  0  0  0  0  0
   19.0740  -13.6146    0.0000 C    0  0  0  0  0  0  0  0  0  0  0  0
   20.1841  -14.2556    0.0000 C    0  0  0  0  0  0  0  0  0  0  0  0
   19.0740  -11.9892    0.0000 C    0  0  0  0  0  0  0  0  0  0  0  0
   20.3559  -11.9892    0.0000 C    0  0  0  0  0  0  0  0  0  0  0  0
   18.4330  -13.0994    0.0000 C    0  0  0  0  0  0  0  0  0  0  0  0
   20.9969  -13.0995    0.0000 C    0  0  0  0  0  0  0  0  0  0  0  0
   19.0740  -14.2096    0.0000 C    0  0  0  0  0  0  0  0  0  0  0  0
   20.3559  -14.2096    0.0000 C    0  0  0  0  0  0  0  0  0  0  0  0
  1  2  1  0  0  0  0
  2  3  2  0  0  0  0
  3  4  1  0  0  0  0
  3  5  1  0  0  0  0
  5  6  1  0  0  0  0
  5  7  2  0  0  0  0
  7  8  1  0  0  0  0
  9 10  1  0  0  0  0
 10 11  2  0  0  0  0
 11 12  1  0  0  0  0
 11 13  1  0  0  0  0
 13 14  1  0  0  0  0
 13 15  2  0  0  0  0
 15 16  1  0  0  0  0
 16 17  1  0  0  0  0
  8 17  1  0  0  0  0
 17 18  1  0  0  0  0
 18 19  1  0  0  0  0
 17 20  1  0  0  0  0
 18 21  1  0  0  0  0
 18 22  1  0  0  0  0
 20 23  1  0  0  0  0
 24 25  1  0  0  0  0
 24 26  2  0  0  0  0
 25 27  2  0  0  0  0
 26 28  1  0  0  0  0
 27 29  1  0  0  0  0
 28 29  2  0  0  0  0
 19 24  1  0  0  0  0
 30 31  1  0  0  0  0
 30 32  2  0  0  0  0
 31 33  2  0  0  0  0
 32 34  1  0  0  0  0
 33 35  1  0  0  0  0
 34 35  2  0  0  0  0
 22 30  1  0  0  0  0
 36 37  1  0  0  0  0
 36 38  2  0  0  0  0
 37 39  2  0  0  0  0
 38 40  1  0  0  0  0
 39 41  1  0  0  0  0
 40 41  2  0  0  0  0
 21 36  1  0  0  0  0
M  END
> <NMREDATA_VERSION>
1.1

> <NMREDATA_LEVEL>
0

> <NMREDATA_SOLVENT>
DCCl3

> <NMREDATA_TEMPERATURE>
298

> <NMREDATA_FORMULA>
C28H35N4O7PRh

> <NMREDATA_SMILES>
CC[Rh](P(Oc1ccccc1)(Oc1ccccc1)Oc1ccccc1)(O/N=C(/C(=N/O)/C)\C)O/N=C(/C(=N/O)/C)\C

> <NMREDATA_ASSIGNMENT>
Rh17, 1926.00, 17

> <NMREDATA_1D_103Rh>
1926.00, L=Rh17

$$$$

  ACD/LABS03242411122D

 24 23  0  0  0  0  0  0  0  0  1 V2000
   18.2954   -2.4668    0.0000 O    0  0  0  0  0  0  0  0  0  0  0  0
   18.9364   -3.5769    0.0000 N    0  0  0  0  0  0  0  0  0  0  0  0
   18.2954   -4.6871    0.0000 C    0  0  0  0  0  0  0  0  0  0  0  0
   17.0135   -4.6871    0.0000 C    0  0  0  0  0  0  0  0  0  0  0  0
   18.9364   -5.7973    0.0000 C    0  0  0  0  0  0  0  0  0  0  0  0
   20.2183   -5.7973    0.0000 C    0  0  0  0  0  0  0  0  0  0  0  0
   18.2954   -6.9075    0.0000 N    0  0  0  0  0  0  0  0  0  0  0  0
   18.9364   -8.0177    0.0000 O    0  0  0  0  0  0  0  0  0  0  0  0
   12.5267  -12.4584    0.0000 O    0  0  0  0  0  0  0  0  0  0  0  0
   13.8087  -12.4584    0.0000 N    0  0  0  0  0  0  0  0  0  0  0  0
   14.4496  -11.3482    0.0000 C    0  0  0  0  0  0  0  0  0  0  0  0
   13.8087  -10.2380    0.0000 C    0  0  0  0  0  0  0  0  0  0  0  0
   15.7316  -11.3482    0.0000 C    0  0  0  0  0  0  0  0  0  0  0  0
   16.3725  -12.4584    0.0000 C    0  0  0  0  0  0  0  0  0  0  0  0
   16.3725  -10.2380    0.0000 N    0  0  0  0  0  0  0  0  0  0  0  0
   17.6544  -10.2380    0.0000 O    0  0  0  0  0  0  0  0  0  0  0  0
   18.2954   -9.1278    0.0000 Rh   0  0  0  0  0  0  0  0  0  0  0  0
   19.4056   -9.7688    0.0000 P    0  0  0  0  0  0  0  0  0  0  0  0
   17.1852   -8.4869    0.0000 C    0  0  0  0  0  0  0  0  0  0  0  0
   16.0750   -9.1278    0.0000 C    0  0  0  0  0  0  0  0  0  0  0  0
   14.9649   -8.4869    0.0000 C    0  0  0  0  0  0  0  0  0  0  0  0
   20.0466   -8.6586    0.0000 C    0  0  0  0  0  0  0  0  0  0  0  0
   18.7646  -10.8790    0.0000 C    0  0  0  0  0  0  0  0  0  0  0  0
   20.5158  -10.4098    0.0000 C    0  0  0  0  0  0  0  0  0  0  0  0
  1  2  1  0  0  0  0
  2  3  2  0  0  0  0
  3  4  1  0  0  0  0
  3  5  1  0  0  0  0
  5  6  1  0  0  0  0
  5  7  2  0  0  0  0
  7  8  1  0  0  0  0
  9 10  1  0  0  0  0
 10 11  2  0  0  0  0
 11 12  1  0  0  0  0
 11 13  1  0  0  0  0
 13 14  1  0  0  0  0
 13 15  2  0  0  0  0
 15 16  1  0  0  0  0
 16 17  1  0  0  0  0
  8 17  1  0  0  0  0
 17 18  1  0  0  0  0
 17 19  1  0  0  0  0
 19 20  1  0  0  0  0
 20 21  1  0  0  0  0
 18 22  1  0  0  0  0
 18 23  1  0  0  0  0
 18 24  1  0  0  0  0
M  END
> <NMREDATA_VERSION>
1.1

> <NMREDATA_LEVEL>
0

> <NMREDATA_SOLVENT>
DCCl3

> <NMREDATA_TEMPERATURE>
298

> <NMREDATA_FORMULA>
C14H31N4O4PRh

> <NMREDATA_SMILES>
CCC[Rh](P(C)(C)C)(O/N=C(/C(=N/O)/C)\C)O/N=C(/C(=N/O)/C)\C

> <NMREDATA_ASSIGNMENT>
Rh17, 1933.00, 17

> <NMREDATA_1D_103Rh>
1933.00, L=Rh17

$$$$

  ACD/LABS03242411132D

 24 23  0  0  0  0  0  0  0  0  1 V2000
   18.2954   -2.4668    0.0000 O    0  0  0  0  0  0  0  0  0  0  0  0
   18.9364   -3.5769    0.0000 N    0  0  0  0  0  0  0  0  0  0  0  0
   18.2954   -4.6871    0.0000 C    0  0  0  0  0  0  0  0  0  0  0  0
   17.0135   -4.6871    0.0000 C    0  0  0  0  0  0  0  0  0  0  0  0
   18.9364   -5.7973    0.0000 C    0  0  0  0  0  0  0  0  0  0  0  0
   20.2183   -5.7973    0.0000 C    0  0  0  0  0  0  0  0  0  0  0  0
   18.2954   -6.9075    0.0000 N    0  0  0  0  0  0  0  0  0  0  0  0
   18.9364   -8.0177    0.0000 O    0  0  0  0  0  0  0  0  0  0  0  0
   12.5267  -12.4584    0.0000 O    0  0  0  0  0  0  0  0  0  0  0  0
   13.8087  -12.4584    0.0000 N    0  0  0  0  0  0  0  0  0  0  0  0
   14.4496  -11.3482    0.0000 C    0  0  0  0  0  0  0  0  0  0  0  0
   13.8087  -10.2380    0.0000 C    0  0  0  0  0  0  0  0  0  0  0  0
   15.7316  -11.3482    0.0000 C    0  0  0  0  0  0  0  0  0  0  0  0
   16.3725  -12.4584    0.0000 C    0  0  0  0  0  0  0  0  0  0  0  0
   16.3725  -10.2380    0.0000 N    0  0  0  0  0  0  0  0  0  0  0  0
   17.6544  -10.2380    0.0000 O    0  0  0  0  0  0  0  0  0  0  0  0
   18.2954   -9.1278    0.0000 Rh   0  0  0  0  0  0  0  0  0  0  0  0
   19.4056   -9.7688    0.0000 P    0  0  0  0  0  0  0  0  0  0  0  0
   20.0466   -8.6586    0.0000 C    0  0  0  0  0  0  0  0  0  0  0  0
   18.7646  -10.8790    0.0000 C    0  0  0  0  0  0  0  0  0  0  0  0
   20.5158  -10.4098    0.0000 C    0  0  0  0  0  0  0  0  0  0  0  0
   17.1852   -8.4869    0.0000 C    0  0  0  0  0  0  0  0  0  0  0  0
   16.0750   -9.1279    0.0000 C    0  0  0  0  0  0  0  0  0  0  0  0
   17.1852   -7.2050    0.0000 C    0  0  0  0  0  0  0  0  0  0  0  0
  1  2  1  0  0  0  0
  2  3  2  0  0  0  0
  3  4  1  0  0  0  0
  3  5  1  0  0  0  0
  5  6  1  0  0  0  0
  5  7  2  0  0  0  0
  7  8  1  0  0  0  0
  9 10  1  0  0  0  0
 10 11  2  0  0  0  0
 11 12  1  0  0  0  0
 11 13  1  0  0  0  0
 13 14  1  0  0  0  0
 13 15  2  0  0  0  0
 15 16  1  0  0  0  0
 16 17  1  0  0  0  0
  8 17  1  0  0  0  0
 17 18  1  0  0  0  0
 18 19  1  0  0  0  0
 18 20  1  0  0  0  0
 18 21  1  0  0  0  0
 22 23  1  0  0  0  0
 22 24  1  0  0  0  0
 17 22  1  0  0  0  0
M  END
> <NMREDATA_VERSION>
1.1

> <NMREDATA_LEVEL>
0

> <NMREDATA_SOLVENT>
DCCl3

> <NMREDATA_TEMPERATURE>
298

> <NMREDATA_FORMULA>
C14H31N4O4PRh

> <NMREDATA_SMILES>
O/N=C(/C(=N/O[Rh](P(C)(C)C)(C(C)C)O/N=C(/C(=N/O)/C)\C)/C)\C

> <NMREDATA_ASSIGNMENT>
Rh17, 1969.00, 17

> <NMREDATA_1D_103Rh>
1969.00, L=Rh17

$$$$

  ACD/LABS03242411132D

 25 24  0  0  0  0  0  0  0  0  1 V2000
   18.2954   -2.4668    0.0000 O    0  0  0  0  0  0  0  0  0  0  0  0
   18.9364   -3.5769    0.0000 N    0  0  0  0  0  0  0  0  0  0  0  0
   18.2954   -4.6871    0.0000 C    0  0  0  0  0  0  0  0  0  0  0  0
   17.0135   -4.6871    0.0000 C    0  0  0  0  0  0  0  0  0  0  0  0
   18.9364   -5.7973    0.0000 C    0  0  0  0  0  0  0  0  0  0  0  0
   20.2183   -5.7973    0.0000 C    0  0  0  0  0  0  0  0  0  0  0  0
   18.2954   -6.9075    0.0000 N    0  0  0  0  0  0  0  0  0  0  0  0
   18.9364   -8.0177    0.0000 O    0  0  0  0  0  0  0  0  0  0  0  0
   12.5267  -12.4584    0.0000 O    0  0  0  0  0  0  0  0  0  0  0  0
   13.8087  -12.4584    0.0000 N    0  0  0  0  0  0  0  0  0  0  0  0
   14.4496  -11.3482    0.0000 C    0  0  0  0  0  0  0  0  0  0  0  0
   13.8087  -10.2380    0.0000 C    0  0  0  0  0  0  0  0  0  0  0  0
   15.7316  -11.3482    0.0000 C    0  0  0  0  0  0  0  0  0  0  0  0
   16.3725  -12.4584    0.0000 C    0  0  0  0  0  0  0  0  0  0  0  0
   16.3725  -10.2380    0.0000 N    0  0  0  0  0  0  0  0  0  0  0  0
   17.6544  -10.2380    0.0000 O    0  0  0  0  0  0  0  0  0  0  0  0
   18.2954   -9.1278    0.0000 Rh   0  0  0  0  0  0  0  0  0  0  0  0
   19.4056   -9.7688    0.0000 P    0  0  0  0  0  0  0  0  0  0  0  0
   20.0466   -8.6586    0.0000 C    0  0  0  0  0  0  0  0  0  0  0  0
   18.7646  -10.8790    0.0000 C    0  0  0  0  0  0  0  0  0  0  0  0
   20.5158  -10.4098    0.0000 C    0  0  0  0  0  0  0  0  0  0  0  0
   17.1852   -8.4869    0.0000 C    0  0  0  0  0  0  0  0  0  0  0  0
   17.8262   -7.3767    0.0000 C    0  0  0  0  0  0  0  0  0  0  0  0
   16.5443   -9.5970    0.0000 C    0  0  0  0  0  0  0  0  0  0  0  0
   16.0751   -7.8459    0.0000 C    0  0  0  0  0  0  0  0  0  0  0  0
  1  2  1  0  0  0  0
  2  3  2  0  0  0  0
  3  4  1  0  0  0  0
  3  5  1  0  0  0  0
  5  6  1  0  0  0  0
  5  7  2  0  0  0  0
  7  8  1  0  0  0  0
  9 10  1  0  0  0  0
 10 11  2  0  0  0  0
 11 12  1  0  0  0  0
 11 13  1  0  0  0  0
 13 14  1  0  0  0  0
 13 15  2  0  0  0  0
 15 16  1  0  0  0  0
 16 17  1  0  0  0  0
  8 17  1  0  0  0  0
 17 18  1  0  0  0  0
 18 19  1  0  0  0  0
 18 20  1  0  0  0  0
 18 21  1  0  0  0  0
 22 23  1  0  0  0  0
 22 24  1  0  0  0  0
 22 25  1  0  0  0  0
 17 22  1  0  0  0  0
M  END
> <NMREDATA_VERSION>
1.1

> <NMREDATA_LEVEL>
0

> <NMREDATA_SOLVENT>
DCCl3

> <NMREDATA_TEMPERATURE>
298

> <NMREDATA_FORMULA>
C15H33N4O4PRh

> <NMREDATA_SMILES>
O/N=C(/C(=N/O[Rh](P(C)(C)C)(C(C)(C)C)O/N=C(/C(=N/O)/C)\C)/C)\C

> <NMREDATA_ASSIGNMENT>
Rh17, 2022.00, 17

> <NMREDATA_1D_103Rh>
2022.00, L=Rh17

$$$$

  ACD/LABS03242411143D

 43 45  0  0  0  0  0  0  0  0  1 V2000
   18.2954   -2.4668    0.0000 O    0  0  0  0  0  0  0  0  0  0  0  0
   18.9364   -3.5769    0.0000 N    0  0  0  0  0  0  0  0  0  0  0  0
   18.2954   -4.6871    0.0000 C    0  0  0  0  0  0  0  0  0  0  0  0
   17.0135   -4.6871    0.0000 C    0  0  0  0  0  0  0  0  0  0  0  0
   18.9364   -5.7973    0.0000 C    0  0  0  0  0  0  0  0  0  0  0  0
   20.2183   -5.7973    0.0000 C    0  0  0  0  0  0  0  0  0  0  0  0
   18.2954   -6.9075    0.0000 N    0  0  0  0  0  0  0  0  0  0  0  0
   18.9364   -8.0177    0.0000 O    0  0  0  0  0  0  0  0  0  0  0  0
   12.5267  -12.4584    0.0000 O    0  0  0  0  0  0  0  0  0  0  0  0
   13.8087  -12.4584    0.0000 N    0  0  0  0  0  0  0  0  0  0  0  0
   14.4496  -11.3482    0.0000 C    0  0  0  0  0  0  0  0  0  0  0  0
   13.8087  -10.2380    0.0000 C    0  0  0  0  0  0  0  0  0  0  0  0
   15.7316  -11.3482    0.0000 C    0  0  0  0  0  0  0  0  0  0  0  0
   16.3725  -12.4584    0.0000 C    0  0  0  0  0  0  0  0  0  0  0  0
   16.3725  -10.2380    0.0000 N    0  0  0  0  0  0  0  0  0  0  0  0
   17.6544  -10.2380    0.0000 O    0  0  0  0  0  0  0  0  0  0  0  0
   18.2954   -9.1278    0.0000 Rh   0  0  0  0  0  0  0  0  0  0  0  0
   19.4056   -9.7688    0.0000 P    0  0  0  0  0  0  0  0  0  0  0  0
   20.0466   -8.6586    0.0000 O    0  0  0  0  0  0  0  0  0  0  0  0
   18.7646  -10.8790    0.0000 O    0  0  0  0  0  0  0  0  0  0  0  0
   20.5158  -10.4098    0.0000 O    0  0  0  0  0  0  0  0  0  0  0  0
   17.1852   -8.4869    0.0000 C    0  0  0  0  0  0  0  0  0  0  0  0
   17.1852   -7.2049    0.0000 C    0  0  0  0  0  0  0  0  0  0  0  0
   16.0751   -6.5639    0.0000 C    0  0  0  0  0  0  0  0  0  0  0  0
   18.2954   -6.5639    0.0000 C    0  0  0  0  0  0  0  0  0  0  0  0
   21.3285   -8.6586    0.0000 C    0  0  0  0  0  0  0  0  0  0  0  0
   21.9695   -7.5485    0.0000 C    0  0  0  0  0  0  0  0  0  0  0  0
   21.9695   -9.7689    0.0000 C    0  0  0  0  0  0  0  0  0  0  0  0
   23.2515   -7.5485    0.0000 C    0  0  0  0  0  0  0  0  0  0  0  0
   23.2514   -9.7689    0.0000 C    0  0  0  0  0  0  0  0  0  0  0  0
   23.8924   -8.6587    0.0000 C    0  0  0  0  0  0  0  0  0  0  0  0
   20.5158  -11.6917    0.0000 C    0  0  0  0  0  0  0  0  0  0  0  0
   21.6260  -12.3327    0.0000 C    0  0  0  0  0  0  0  0  0  0  0  0
   19.4055  -12.3327    0.0000 C    0  0  0  0  0  0  0  0  0  0  0  0
   21.6259  -13.6147    0.0000 C    0  0  0  0  0  0  0  0  0  0  0  0
   19.4055  -13.6146    0.0000 C    0  0  0  0  0  0  0  0  0  0  0  0
   20.5157  -14.2556    0.0000 C    0  0  0  0  0  0  0  0  0  0  0  0
   19.4056  -11.9892    0.0000 C    0  0  0  0  0  0  0  0  0  0  0  0
   20.6875  -11.9892    0.0000 C    0  0  0  0  0  0  0  0  0  0  0  0
   18.7646  -13.0994    0.0000 C    0  0  0  0  0  0  0  0  0  0  0  0
   21.3285  -13.0995    0.0000 C    0  0  0  0  0  0  0  0  0  0  0  0
   19.4056  -14.2096    0.0000 C    0  0  0  0  0  0  0  0  0  0  0  0
   20.6875  -14.2096    0.0000 C    0  0  0  0  0  0  0  0  0  0  0  0
  1  2  1  0  0  0  0
  2  3  2  0  0  0  0
  3  4  1  0  0  0  0
  3  5  1  0  0  0  0
  5  6  1  0  0  0  0
  5  7  2  0  0  0  0
  7  8  1  0  0  0  0
  9 10  1  0  0  0  0
 10 11  2  0  0  0  0
 11 12  1  0  0  0  0
 11 13  1  0  0  0  0
 13 14  1  0  0  0  0
 13 15  2  0  0  0  0
 15 16  1  0  0  0  0
 16 17  1  0  0  0  0
  8 17  1  0  0  0  0
 17 18  1  0  0  0  0
 18 19  1  0  0  0  0
 18 20  1  0  0  0  0
 18 21  1  0  0  0  0
 22 23  1  0  0  0  0
 23 24  1  0  0  0  0
 23 25  1  0  0  0  0
 17 22  1  0  0  0  0
 26 27  1  0  0  0  0
 26 28  2  0  0  0  0
 27 29  2  0  0  0  0
 28 30  1  0  0  0  0
 29 31  1  0  0  0  0
 30 31  2  0  0  0  0
 19 26  1  0  0  0  0
 32 33  1  0  0  0  0
 32 34  2  0  0  0  0
 33 35  2  0  0  0  0
 34 36  1  0  0  0  0
 35 37  1  0  0  0  0
 36 37  2  0  0  0  0
 21 32  1  0  0  0  0
 38 39  1  0  0  0  0
 38 40  2  0  0  0  0
 39 41  2  0  0  0  0
 40 42  1  0  0  0  0
 41 43  1  0  0  0  0
 42 43  2  0  0  0  0
 20 38  1  0  0  0  0
M  END
> <NMREDATA_VERSION>
1.1

> <NMREDATA_LEVEL>
0

> <NMREDATA_SOLVENT>
DCCl3

> <NMREDATA_TEMPERATURE>
298

> <NMREDATA_FORMULA>
C30H39N4O7PRh

> <NMREDATA_SMILES>
CC(C[Rh](P(Oc1ccccc1)(Oc1ccccc1)Oc1ccccc1)(O/N=C(/C(=N/O)/C)\C)O/N=C(/C(=N/O)/C)\C)C

> <NMREDATA_ASSIGNMENT>
Rh17, 1968.00, 17

> <NMREDATA_1D_103Rh>
1968.00, L=Rh17

$$$$

  ACD/LABS03242411222D

 21 20  0  0  0  0  0  0  0  0  1 V2000
   18.5333   -2.4667    0.0000 O    0  0  0  0  0  0  0  0  0  0  0  0
   19.1743   -3.5769    0.0000 N    0  0  0  0  0  0  0  0  0  0  0  0
   18.5333   -4.6871    0.0000 C    0  0  0  0  0  0  0  0  0  0  0  0
   17.2514   -4.6871    0.0000 C    0  0  0  0  0  0  0  0  0  0  0  0
   19.1743   -5.7973    0.0000 C    0  0  0  0  0  0  0  0  0  0  0  0
   20.4562   -5.7973    0.0000 C    0  0  0  0  0  0  0  0  0  0  0  0
   18.5333   -6.9075    0.0000 N    0  0  0  0  0  0  0  0  0  0  0  0
   19.1743   -8.0177    0.0000 O    0  0  0  0  0  0  0  0  0  0  0  0
   12.7646  -12.4584    0.0000 O    0  0  0  0  0  0  0  0  0  0  0  0
   14.0466  -12.4584    0.0000 N    0  0  0  0  0  0  0  0  0  0  0  0
   14.6875  -11.3482    0.0000 C    0  0  0  0  0  0  0  0  0  0  0  0
   14.0466  -10.2380    0.0000 C    0  0  0  0  0  0  0  0  0  0  0  0
   15.9695  -11.3482    0.0000 C    0  0  0  0  0  0  0  0  0  0  0  0
   16.6104  -12.4584    0.0000 C    0  0  0  0  0  0  0  0  0  0  0  0
   16.6104  -10.2380    0.0000 N    0  0  0  0  0  0  0  0  0  0  0  0
   17.8923  -10.2380    0.0000 O    0  0  0  0  0  0  0  0  0  0  0  0
   18.5333   -9.1278    0.0000 Rh   0  0  0  0  0  0  0  0  0  0  0  0
   17.4231   -8.4869    0.0000 C    0  0  0  0  0  0  0  0  0  0  0  0
   19.6435   -9.7688    0.0000 O    0  0  0  0  0  0  0  0  0  0  0  0
   19.6435  -11.0507    0.0000 H    0  0  0  0  0  0  0  0  0  0  0  0
   20.7537   -9.1278    0.0000 H    0  0  0  0  0  0  0  0  0  0  0  0
  1  2  1  0  0  0  0
  2  3  2  0  0  0  0
  3  4  1  0  0  0  0
  3  5  1  0  0  0  0
  5  6  1  0  0  0  0
  5  7  2  0  0  0  0
  7  8  1  0  0  0  0
  9 10  1  0  0  0  0
 10 11  2  0  0  0  0
 11 12  1  0  0  0  0
 11 13  1  0  0  0  0
 13 14  1  0  0  0  0
 13 15  2  0  0  0  0
 15 16  1  0  0  0  0
 16 17  1  0  0  0  0
  8 17  1  0  0  0  0
 17 18  1  0  0  0  0
 17 19  1  0  0  0  0
 19 20  1  0  0  0  0
 19 21  1  0  0  0  0
M  END
> <NMREDATA_VERSION>
1.1

> <NMREDATA_LEVEL>
0

> <NMREDATA_SOLVENT>
D2O

> <NMREDATA_TEMPERATURE>
298

> <NMREDATA_FORMULA>
C9H19N4O5Rh

> <NMREDATA_SMILES>
O/N=C(/C(=N/O[Rh](O/N=C(/C(=N/O)/C)\C)([OH2])C)/C)\C

> <NMREDATA_ASSIGNMENT>
Rh17, 2672.00, 17

> <NMREDATA_1D_103Rh>
2672.00, L=Rh17

$$$$

  ACD/LABS03242411232D

 22 21  0  0  0  0  0  0  0  0  1 V2000
   18.5333   -2.4667    0.0000 O    0  0  0  0  0  0  0  0  0  0  0  0
   19.1743   -3.5769    0.0000 N    0  0  0  0  0  0  0  0  0  0  0  0
   18.5333   -4.6871    0.0000 C    0  0  0  0  0  0  0  0  0  0  0  0
   17.2514   -4.6871    0.0000 C    0  0  0  0  0  0  0  0  0  0  0  0
   19.1743   -5.7973    0.0000 C    0  0  0  0  0  0  0  0  0  0  0  0
   20.4562   -5.7973    0.0000 C    0  0  0  0  0  0  0  0  0  0  0  0
   18.5333   -6.9075    0.0000 N    0  0  0  0  0  0  0  0  0  0  0  0
   19.1743   -8.0177    0.0000 O    0  0  0  0  0  0  0  0  0  0  0  0
   12.7646  -12.4584    0.0000 O    0  0  0  0  0  0  0  0  0  0  0  0
   14.0466  -12.4584    0.0000 N    0  0  0  0  0  0  0  0  0  0  0  0
   14.6875  -11.3482    0.0000 C    0  0  0  0  0  0  0  0  0  0  0  0
   14.0466  -10.2380    0.0000 C    0  0  0  0  0  0  0  0  0  0  0  0
   15.9695  -11.3482    0.0000 C    0  0  0  0  0  0  0  0  0  0  0  0
   16.6104  -12.4584    0.0000 C    0  0  0  0  0  0  0  0  0  0  0  0
   16.6104  -10.2380    0.0000 N    0  0  0  0  0  0  0  0  0  0  0  0
   17.8923  -10.2380    0.0000 O    0  0  0  0  0  0  0  0  0  0  0  0
   18.5333   -9.1278    0.0000 Rh   0  0  0  0  0  0  0  0  0  0  0  0
   17.4231   -8.4869    0.0000 C    0  0  0  0  0  0  0  0  0  0  0  0
   19.6435   -9.7688    0.0000 O    0  0  0  0  0  0  0  0  0  0  0  0
   19.6435  -11.0507    0.0000 H    0  0  0  0  0  0  0  0  0  0  0  0
   20.7537   -9.1278    0.0000 H    0  0  0  0  0  0  0  0  0  0  0  0
   17.4231   -7.2050    0.0000 C    0  0  0  0  0  0  0  0  0  0  0  0
  1  2  1  0  0  0  0
  2  3  2  0  0  0  0
  3  4  1  0  0  0  0
  3  5  1  0  0  0  0
  5  6  1  0  0  0  0
  5  7  2  0  0  0  0
  7  8  1  0  0  0  0
  9 10  1  0  0  0  0
 10 11  2  0  0  0  0
 11 12  1  0  0  0  0
 11 13  1  0  0  0  0
 13 14  1  0  0  0  0
 13 15  2  0  0  0  0
 15 16  1  0  0  0  0
 16 17  1  0  0  0  0
  8 17  1  0  0  0  0
 17 18  1  0  0  0  0
 17 19  1  0  0  0  0
 19 20  1  0  0  0  0
 19 21  1  0  0  0  0
 18 22  1  0  0  0  0
M  END
> <NMREDATA_VERSION>
1.1

> <NMREDATA_LEVEL>
0

> <NMREDATA_SOLVENT>
D2O

> <NMREDATA_TEMPERATURE>
298

> <NMREDATA_FORMULA>
C10H21N4O5Rh

> <NMREDATA_SMILES>
CC[Rh](O/N=C(/C(=N/O)/C)\C)(O/N=C(/C(=N/O)/C)\C)[OH2]

> <NMREDATA_ASSIGNMENT>
Rh17, 2656.00, 17

> <NMREDATA_1D_103Rh>
2656.00, L=Rh17

$$$$

  ACD/LABS03242411232D

 23 22  0  0  0  0  0  0  0  0  1 V2000
   18.5333   -2.4667    0.0000 O    0  0  0  0  0  0  0  0  0  0  0  0
   19.1743   -3.5769    0.0000 N    0  0  0  0  0  0  0  0  0  0  0  0
   18.5333   -4.6871    0.0000 C    0  0  0  0  0  0  0  0  0  0  0  0
   17.2514   -4.6871    0.0000 C    0  0  0  0  0  0  0  0  0  0  0  0
   19.1743   -5.7973    0.0000 C    0  0  0  0  0  0  0  0  0  0  0  0
   20.4562   -5.7973    0.0000 C    0  0  0  0  0  0  0  0  0  0  0  0
   18.5333   -6.9075    0.0000 N    0  0  0  0  0  0  0  0  0  0  0  0
   19.1743   -8.0177    0.0000 O    0  0  0  0  0  0  0  0  0  0  0  0
   12.7646  -12.4584    0.0000 O    0  0  0  0  0  0  0  0  0  0  0  0
   14.0466  -12.4584    0.0000 N    0  0  0  0  0  0  0  0  0  0  0  0
   14.6875  -11.3482    0.0000 C    0  0  0  0  0  0  0  0  0  0  0  0
   14.0466  -10.2380    0.0000 C    0  0  0  0  0  0  0  0  0  0  0  0
   15.9695  -11.3482    0.0000 C    0  0  0  0  0  0  0  0  0  0  0  0
   16.6104  -12.4584    0.0000 C    0  0  0  0  0  0  0  0  0  0  0  0
   16.6104  -10.2380    0.0000 N    0  0  0  0  0  0  0  0  0  0  0  0
   17.8923  -10.2380    0.0000 O    0  0  0  0  0  0  0  0  0  0  0  0
   18.5333   -9.1278    0.0000 Rh   0  0  0  0  0  0  0  0  0  0  0  0
   17.4231   -8.4869    0.0000 C    0  0  0  0  0  0  0  0  0  0  0  0
   19.6435   -9.7688    0.0000 O    0  0  0  0  0  0  0  0  0  0  0  0
   19.6435  -11.0507    0.0000 H    0  0  0  0  0  0  0  0  0  0  0  0
   20.7537   -9.1278    0.0000 H    0  0  0  0  0  0  0  0  0  0  0  0
   17.4231   -7.2050    0.0000 C    0  0  0  0  0  0  0  0  0  0  0  0
   16.3927   -6.8263    0.0000 C    0  0  0  0  0  0  0  0  0  0  0  0
  1  2  1  0  0  0  0
  2  3  2  0  0  0  0
  3  4  1  0  0  0  0
  3  5  1  0  0  0  0
  5  6  1  0  0  0  0
  5  7  2  0  0  0  0
  7  8  1  0  0  0  0
  9 10  1  0  0  0  0
 10 11  2  0  0  0  0
 11 12  1  0  0  0  0
 11 13  1  0  0  0  0
 13 14  1  0  0  0  0
 13 15  2  0  0  0  0
 15 16  1  0  0  0  0
 16 17  1  0  0  0  0
  8 17  1  0  0  0  0
 17 18  1  0  0  0  0
 17 19  1  0  0  0  0
 19 20  1  0  0  0  0
 19 21  1  0  0  0  0
 18 22  1  0  0  0  0
 22 23  1  0  0  0  0
M  END
> <NMREDATA_VERSION>
1.1

> <NMREDATA_LEVEL>
0

> <NMREDATA_SOLVENT>
D2O

> <NMREDATA_TEMPERATURE>
298

> <NMREDATA_FORMULA>
C11H23N4O5Rh

> <NMREDATA_SMILES>
CCC[Rh](O/N=C(/C(=N/O)/C)\C)(O/N=C(/C(=N/O)/C)\C)[OH2]

> <NMREDATA_ASSIGNMENT>
Rh17, 2665.00, 17

> <NMREDATA_1D_103Rh>
2665.00, L=Rh17

$$$$

  ACD/LABS03242411232D

 23 22  0  0  0  0  0  0  0  0  1 V2000
   18.5333   -2.4667    0.0000 O    0  0  0  0  0  0  0  0  0  0  0  0
   19.1743   -3.5769    0.0000 N    0  0  0  0  0  0  0  0  0  0  0  0
   18.5333   -4.6871    0.0000 C    0  0  0  0  0  0  0  0  0  0  0  0
   17.2514   -4.6871    0.0000 C    0  0  0  0  0  0  0  0  0  0  0  0
   19.1743   -5.7973    0.0000 C    0  0  0  0  0  0  0  0  0  0  0  0
   20.4562   -5.7973    0.0000 C    0  0  0  0  0  0  0  0  0  0  0  0
   18.5333   -6.9075    0.0000 N    0  0  0  0  0  0  0  0  0  0  0  0
   19.1743   -8.0177    0.0000 O    0  0  0  0  0  0  0  0  0  0  0  0
   12.7646  -12.4584    0.0000 O    0  0  0  0  0  0  0  0  0  0  0  0
   14.0466  -12.4584    0.0000 N    0  0  0  0  0  0  0  0  0  0  0  0
   14.6875  -11.3482    0.0000 C    0  0  0  0  0  0  0  0  0  0  0  0
   14.0466  -10.2380    0.0000 C    0  0  0  0  0  0  0  0  0  0  0  0
   15.9695  -11.3482    0.0000 C    0  0  0  0  0  0  0  0  0  0  0  0
   16.6104  -12.4584    0.0000 C    0  0  0  0  0  0  0  0  0  0  0  0
   16.6104  -10.2380    0.0000 N    0  0  0  0  0  0  0  0  0  0  0  0
   17.8923  -10.2380    0.0000 O    0  0  0  0  0  0  0  0  0  0  0  0
   18.5333   -9.1278    0.0000 Rh   0  0  0  0  0  0  0  0  0  0  0  0
   19.6435   -9.7688    0.0000 O    0  0  0  0  0  0  0  0  0  0  0  0
   19.6435  -11.0507    0.0000 H    0  0  0  0  0  0  0  0  0  0  0  0
   20.7537   -9.1278    0.0000 H    0  0  0  0  0  0  0  0  0  0  0  0
   17.4231   -8.4869    0.0000 C    0  0  0  0  0  0  0  0  0  0  0  0
   16.3129   -9.1279    0.0000 C    0  0  0  0  0  0  0  0  0  0  0  0
   17.4231   -7.2050    0.0000 C    0  0  0  0  0  0  0  0  0  0  0  0
  1  2  1  0  0  0  0
  2  3  2  0  0  0  0
  3  4  1  0  0  0  0
  3  5  1  0  0  0  0
  5  6  1  0  0  0  0
  5  7  2  0  0  0  0
  7  8  1  0  0  0  0
  9 10  1  0  0  0  0
 10 11  2  0  0  0  0
 11 12  1  0  0  0  0
 11 13  1  0  0  0  0
 13 14  1  0  0  0  0
 13 15  2  0  0  0  0
 15 16  1  0  0  0  0
 16 17  1  0  0  0  0
  8 17  1  0  0  0  0
 17 18  1  0  0  0  0
 18 19  1  0  0  0  0
 18 20  1  0  0  0  0
 21 22  1  0  0  0  0
 21 23  1  0  0  0  0
 17 21  1  0  0  0  0
M  END
> <NMREDATA_VERSION>
1.1

> <NMREDATA_LEVEL>
0

> <NMREDATA_SOLVENT>
D2O

> <NMREDATA_TEMPERATURE>
298

> <NMREDATA_FORMULA>
C11H23N4O5Rh

> <NMREDATA_SMILES>
CC([Rh](O/N=C(/C(=N/O)/C)\C)(O/N=C(/C(=N/O)/C)\C)[OH2])C

> <NMREDATA_ASSIGNMENT>
Rh17, 2714.00, 17

> <NMREDATA_1D_103Rh>
2714.00, L=Rh17

$$$$

  ACD/LABS03242411232D

 24 23  0  0  0  0  0  0  0  0  1 V2000
   18.5333   -2.4667    0.0000 O    0  0  0  0  0  0  0  0  0  0  0  0
   19.1743   -3.5769    0.0000 N    0  0  0  0  0  0  0  0  0  0  0  0
   18.5333   -4.6871    0.0000 C    0  0  0  0  0  0  0  0  0  0  0  0
   17.2514   -4.6871    0.0000 C    0  0  0  0  0  0  0  0  0  0  0  0
   19.1743   -5.7973    0.0000 C    0  0  0  0  0  0  0  0  0  0  0  0
   20.4562   -5.7973    0.0000 C    0  0  0  0  0  0  0  0  0  0  0  0
   18.5333   -6.9075    0.0000 N    0  0  0  0  0  0  0  0  0  0  0  0
   19.1743   -8.0177    0.0000 O    0  0  0  0  0  0  0  0  0  0  0  0
   12.7646  -12.4584    0.0000 O    0  0  0  0  0  0  0  0  0  0  0  0
   14.0466  -12.4584    0.0000 N    0  0  0  0  0  0  0  0  0  0  0  0
   14.6875  -11.3482    0.0000 C    0  0  0  0  0  0  0  0  0  0  0  0
   14.0466  -10.2380    0.0000 C    0  0  0  0  0  0  0  0  0  0  0  0
   15.9695  -11.3482    0.0000 C    0  0  0  0  0  0  0  0  0  0  0  0
   16.6104  -12.4584    0.0000 C    0  0  0  0  0  0  0  0  0  0  0  0
   16.6104  -10.2380    0.0000 N    0  0  0  0  0  0  0  0  0  0  0  0
   17.8923  -10.2380    0.0000 O    0  0  0  0  0  0  0  0  0  0  0  0
   18.5333   -9.1278    0.0000 Rh   0  0  0  0  0  0  0  0  0  0  0  0
   17.4231   -8.4869    0.0000 C    0  0  0  0  0  0  0  0  0  0  0  0
   19.6435   -9.7688    0.0000 O    0  0  0  0  0  0  0  0  0  0  0  0
   19.6435  -11.0507    0.0000 H    0  0  0  0  0  0  0  0  0  0  0  0
   20.7537   -9.1278    0.0000 H    0  0  0  0  0  0  0  0  0  0  0  0
   17.4231   -7.2050    0.0000 C    0  0  0  0  0  0  0  0  0  0  0  0
   16.3927   -6.8263    0.0000 C    0  0  0  0  0  0  0  0  0  0  0  0
   16.1740   -5.5631    0.0000 C    0  0  0  0  0  0  0  0  0  0  0  0
  1  2  1  0  0  0  0
  2  3  2  0  0  0  0
  3  4  1  0  0  0  0
  3  5  1  0  0  0  0
  5  6  1  0  0  0  0
  5  7  2  0  0  0  0
  7  8  1  0  0  0  0
  9 10  1  0  0  0  0
 10 11  2  0  0  0  0
 11 12  1  0  0  0  0
 11 13  1  0  0  0  0
 13 14  1  0  0  0  0
 13 15  2  0  0  0  0
 15 16  1  0  0  0  0
 16 17  1  0  0  0  0
  8 17  1  0  0  0  0
 17 18  1  0  0  0  0
 17 19  1  0  0  0  0
 19 20  1  0  0  0  0
 19 21  1  0  0  0  0
 18 22  1  0  0  0  0
 22 23  1  0  0  0  0
 23 24  1  0  0  0  0
M  END
> <NMREDATA_VERSION>
1.1

> <NMREDATA_LEVEL>
0

> <NMREDATA_SOLVENT>
D2O

> <NMREDATA_TEMPERATURE>
298

> <NMREDATA_FORMULA>
C12H25N4O5Rh

> <NMREDATA_SMILES>
CCCC[Rh](O/N=C(/C(=N/O)/C)\C)(O/N=C(/C(=N/O)/C)\C)[OH2]

> <NMREDATA_ASSIGNMENT>
Rh17, 2681.00, 17

> <NMREDATA_1D_103Rh>
2681.00, L=Rh17

$$$$

  ACD/LABS03242411243D

 24 23  0  0  0  0  0  0  0  0  1 V2000
   18.5333   -2.4667    0.0000 O    0  0  0  0  0  0  0  0  0  0  0  0
   19.1743   -3.5769    0.0000 N    0  0  0  0  0  0  0  0  0  0  0  0
   18.5333   -4.6871    0.0000 C    0  0  0  0  0  0  0  0  0  0  0  0
   17.2514   -4.6871    0.0000 C    0  0  0  0  0  0  0  0  0  0  0  0
   19.1743   -5.7973    0.0000 C    0  0  0  0  0  0  0  0  0  0  0  0
   20.4562   -5.7973    0.0000 C    0  0  0  0  0  0  0  0  0  0  0  0
   18.5333   -6.9075    0.0000 N    0  0  0  0  0  0  0  0  0  0  0  0
   19.1743   -8.0177    0.0000 O    0  0  0  0  0  0  0  0  0  0  0  0
   12.7646  -12.4584    0.0000 O    0  0  0  0  0  0  0  0  0  0  0  0
   14.0466  -12.4584    0.0000 N    0  0  0  0  0  0  0  0  0  0  0  0
   14.6875  -11.3482    0.0000 C    0  0  0  0  0  0  0  0  0  0  0  0
   14.0466  -10.2380    0.0000 C    0  0  0  0  0  0  0  0  0  0  0  0
   15.9695  -11.3482    0.0000 C    0  0  0  0  0  0  0  0  0  0  0  0
   16.6104  -12.4584    0.0000 C    0  0  0  0  0  0  0  0  0  0  0  0
   16.6104  -10.2380    0.0000 N    0  0  0  0  0  0  0  0  0  0  0  0
   17.8923  -10.2380    0.0000 O    0  0  0  0  0  0  0  0  0  0  0  0
   18.5333   -9.1278    0.0000 Rh   0  0  0  0  0  0  0  0  0  0  0  0
   19.6435   -9.7688    0.0000 O    0  0  0  0  0  0  0  0  0  0  0  0
   19.6435  -11.0507    0.0000 H    0  0  0  0  0  0  0  0  0  0  0  0
   20.7537   -9.1278    0.0000 H    0  0  0  0  0  0  0  0  0  0  0  0
   17.4231   -8.4869    0.0000 C    0  0  0  0  0  0  0  0  0  0  0  0
   17.4231   -7.2049    0.0000 C    0  0  0  0  0  0  0  0  0  0  0  0
   16.3130   -6.5639    0.0000 C    0  0  0  0  0  0  0  0  0  0  0  0
   18.5333   -6.5639    0.0000 C    0  0  0  0  0  0  0  0  0  0  0  0
  1  2  1  0  0  0  0
  2  3  2  0  0  0  0
  3  4  1  0  0  0  0
  3  5  1  0  0  0  0
  5  6  1  0  0  0  0
  5  7  2  0  0  0  0
  7  8  1  0  0  0  0
  9 10  1  0  0  0  0
 10 11  2  0  0  0  0
 11 12  1  0  0  0  0
 11 13  1  0  0  0  0
 13 14  1  0  0  0  0
 13 15  2  0  0  0  0
 15 16  1  0  0  0  0
 16 17  1  0  0  0  0
  8 17  1  0  0  0  0
 17 18  1  0  0  0  0
 18 19  1  0  0  0  0
 18 20  1  0  0  0  0
 21 22  1  0  0  0  0
 22 23  1  0  0  0  0
 22 24  1  0  0  0  0
 17 21  1  0  0  0  0
M  END
> <NMREDATA_VERSION>
1.1

> <NMREDATA_LEVEL>
0

> <NMREDATA_SOLVENT>
D2O

> <NMREDATA_TEMPERATURE>
298

> <NMREDATA_FORMULA>
C12H25N4O5Rh

> <NMREDATA_SMILES>
CC(C[Rh](O/N=C(/C(=N/O)/C)\C)(O/N=C(/C(=N/O)/C)\C)[OH2])C

> <NMREDATA_ASSIGNMENT>
Rh17, 2712.00, 17

> <NMREDATA_1D_103Rh>
2712.00, L=Rh17

$$$$

  ACD/LABS03242411252D

 25 24  0  0  0  0  0  0  0  0  1 V2000
   18.5333   -2.4667    0.0000 O    0  0  0  0  0  0  0  0  0  0  0  0
   19.1743   -3.5769    0.0000 N    0  0  0  0  0  0  0  0  0  0  0  0
   18.5333   -4.6871    0.0000 C    0  0  0  0  0  0  0  0  0  0  0  0
   17.2514   -4.6871    0.0000 C    0  0  0  0  0  0  0  0  0  0  0  0
   19.1743   -5.7973    0.0000 C    0  0  0  0  0  0  0  0  0  0  0  0
   20.4562   -5.7973    0.0000 C    0  0  0  0  0  0  0  0  0  0  0  0
   18.5333   -6.9075    0.0000 N    0  0  0  0  0  0  0  0  0  0  0  0
   19.1743   -8.0177    0.0000 O    0  0  0  0  0  0  0  0  0  0  0  0
   12.7646  -12.4584    0.0000 O    0  0  0  0  0  0  0  0  0  0  0  0
   14.0466  -12.4584    0.0000 N    0  0  0  0  0  0  0  0  0  0  0  0
   14.6875  -11.3482    0.0000 C    0  0  0  0  0  0  0  0  0  0  0  0
   14.0466  -10.2380    0.0000 C    0  0  0  0  0  0  0  0  0  0  0  0
   15.9695  -11.3482    0.0000 C    0  0  0  0  0  0  0  0  0  0  0  0
   16.6104  -12.4584    0.0000 C    0  0  0  0  0  0  0  0  0  0  0  0
   16.6104  -10.2380    0.0000 N    0  0  0  0  0  0  0  0  0  0  0  0
   17.8923  -10.2380    0.0000 O    0  0  0  0  0  0  0  0  0  0  0  0
   18.5333   -9.1278    0.0000 Rh   0  0  0  0  0  0  0  0  0  0  0  0
   19.6435   -9.7688    0.0000 O    0  0  0  0  0  0  0  0  0  0  0  0
   19.6435  -11.0507    0.0000 H    0  0  0  0  0  0  0  0  0  0  0  0
   20.7537   -9.1278    0.0000 H    0  0  0  0  0  0  0  0  0  0  0  0
   17.4231   -8.4869    0.0000 O    0  0  0  0  0  0  0  0  0  0  0  0
   16.3129   -9.1278    0.0000 C    0  0  0  0  0  0  0  0  0  0  0  0
   16.9539  -10.2380    0.0000 C    0  0  0  0  0  0  0  0  0  0  0  0
   15.6720   -8.0177    0.0000 C    0  0  0  0  0  0  0  0  0  0  0  0
   15.2028   -9.7688    0.0000 C    0  0  0  0  0  0  0  0  0  0  0  0
  1  2  1  0  0  0  0
  2  3  2  0  0  0  0
  3  4  1  0  0  0  0
  3  5  1  0  0  0  0
  5  6  1  0  0  0  0
  5  7  2  0  0  0  0
  7  8  1  0  0  0  0
  9 10  1  0  0  0  0
 10 11  2  0  0  0  0
 11 12  1  0  0  0  0
 11 13  1  0  0  0  0
 13 14  1  0  0  0  0
 13 15  2  0  0  0  0
 15 16  1  0  0  0  0
 16 17  1  0  0  0  0
  8 17  1  0  0  0  0
 17 18  1  0  0  0  0
 18 19  1  0  0  0  0
 18 20  1  0  0  0  0
 17 21  1  0  0  0  0
 21 22  1  0  0  0  0
 22 23  1  0  0  0  0
 22 24  1  0  0  0  0
 22 25  1  0  0  0  0
M  END
> <NMREDATA_VERSION>
1.1

> <NMREDATA_LEVEL>
0

> <NMREDATA_SOLVENT>
D2O

> <NMREDATA_TEMPERATURE>
298

> <NMREDATA_FORMULA>
C12H25N4O6Rh

> <NMREDATA_SMILES>
O/N=C(/C(=N/O[Rh](OC(C)(C)C)(O/N=C(/C(=N/O)/C)\C)[OH2])/C)\C

> <NMREDATA_ASSIGNMENT>
Rh17, 2818.00, 17

> <NMREDATA_1D_103Rh>
2818.00, L=Rh17

$$$$

  ACD/LABS03242411272D

 26 27  0  0  0  0  0  0  0  0  1 V2000
   17.9386   -3.2499    0.0000 C    0  0  0  0  0  0  0  0  0  0  0  0
   19.0904   -3.9149    0.0000 C    0  0  0  0  0  0  0  0  0  0  0  0
   16.7867   -3.9149    0.0000 C    0  0  0  0  0  0  0  0  0  0  0  0
   19.0904   -5.2449    0.0000 C    0  0  0  0  0  0  0  0  0  0  0  0
   16.7867   -5.2449    0.0000 C    0  0  0  0  0  0  0  0  0  0  0  0
   17.9386   -5.9099    0.0000 C    0  0  0  0  0  0  0  0  0  0  0  0
   16.7867   -7.9049    0.0000 Rh   0  0  0  0  0  0  0  0  0  0  0  0
   17.4517   -9.0567    0.0000 Cl   0  0  0  0  0  0  0  0  0  0  0  0
   16.1217   -6.7531    0.0000 Cl   0  0  0  0  0  0  0  0  0  0  0  0
   17.9386   -7.2399    0.0000 C    0  0  0  0  0  0  0  0  0  0  0  0
   15.6349   -8.5699    0.0000 N    0  0  0  0  0  0  0  0  0  0  0  0
   15.6349   -9.8999    0.0000 C    0  0  0  0  0  0  0  0  0  0  0  0
   14.4831   -7.9049    0.0000 C    0  0  0  0  0  0  0  0  0  0  0  0
   14.4831  -10.5649    0.0000 C    0  0  0  0  0  0  0  0  0  0  0  0
   13.3313   -8.5699    0.0000 C    0  0  0  0  0  0  0  0  0  0  0  0
   13.3313   -9.8999    0.0000 C    0  0  0  0  0  0  0  0  0  0  0  0
   16.7867  -10.5649    0.0000 C    0  0  0  0  0  0  0  0  0  0  0  0
   14.4831   -6.5749    0.0000 C    0  0  0  0  0  0  0  0  0  0  0  0
   16.7867  -11.8949    0.0000 N    0  0  0  0  0  0  0  0  0  0  0  0
   13.3313   -5.9099    0.0000 N    0  0  0  0  0  0  0  0  0  0  0  0
   15.6349  -12.5599    0.0000 C    0  0  0  0  0  0  0  0  0  0  0  0
   15.6349  -13.8899    0.0000 C    0  0  0  0  0  0  0  0  0  0  0  0
   14.4831  -11.8949    0.0000 C    0  0  0  0  0  0  0  0  0  0  0  0
   13.3313   -4.5799    0.0000 C    0  0  0  0  0  0  0  0  0  0  0  0
   12.1795   -3.9149    0.0000 C    0  0  0  0  0  0  0  0  0  0  0  0
   14.4831   -3.9149    0.0000 C    0  0  0  0  0  0  0  0  0  0  0  0
  1  2  1  0  0  0  0
  1  3  2  0  0  0  0
  2  4  2  0  0  0  0
  3  5  1  0  0  0  0
  4  6  1  0  0  0  0
  5  6  2  0  0  0  0
  7  8  1  0  0  0  0
  7  9  1  0  0  0  0
  7 10  1  0  0  0  0
  6 10  1  0  0  0  0
 11 12  1  0  0  0  0
 11 13  2  0  0  0  0
 12 14  2  0  0  0  0
 13 15  1  0  0  0  0
 14 16  1  0  0  0  0
 15 16  2  0  0  0  0
  7 11  1  0  0  0  0
 12 17  1  0  0  0  0
 13 18  1  0  0  0  0
 17 19  2  0  0  0  0
 18 20  2  0  0  0  0
 21 22  1  0  0  0  0
 21 23  1  0  0  0  0
 19 21  1  0  0  0  0
 24 25  1  0  0  0  0
 24 26  1  0  0  0  0
 20 24  1  0  0  0  0
M  END
> <NMREDATA_VERSION>
1.1

> <NMREDATA_LEVEL>
0

> <NMREDATA_SOLVENT>
CD2Cl2

> <NMREDATA_TEMPERATURE>
298

> <NMREDATA_FORMULA>
C20H27Cl2N3Rh

> <NMREDATA_SMILES>
CC(/N=C\C1=CC=CC(=N1[Rh](Cc1ccccc1)(Cl)Cl)/C=N/C(C)C)C

> <NMREDATA_ASSIGNMENT>
Rh7, 3649.00, 7

> <NMREDATA_1D_103Rh>
3649.00, L=Rh7

$$$$

  ACD/LABS03242411302D

 32 35  0  0  0  0  0  0  0  0  1 V2000
   18.6717   -5.3822    0.0000 N    0  0  0  0  0  0  0  0  0  0  0  0
   18.6717   -6.7122    0.0000 C    0  0  0  0  0  0  0  0  0  0  0  0
   17.5199   -4.7172    0.0000 C    0  0  0  0  0  0  0  0  0  0  0  0
   17.5199   -7.3772    0.0000 C    0  0  0  0  0  0  0  0  0  0  0  0
   16.3681   -5.3822    0.0000 C    0  0  0  0  0  0  0  0  0  0  0  0
   16.3681   -6.7122    0.0000 C    0  0  0  0  0  0  0  0  0  0  0  0
   19.8236   -7.3772    0.0000 C    0  0  0  0  0  0  0  0  0  0  0  0
   20.9754   -6.7122    0.0000 C    0  0  0  0  0  0  0  0  0  0  0  0
   19.8236   -8.7072    0.0000 C    0  0  0  0  0  0  0  0  0  0  0  0
   22.1272   -7.3772    0.0000 C    0  0  0  0  0  0  0  0  0  0  0  0
   20.9754   -9.3722    0.0000 N    0  0  0  0  0  0  0  0  0  0  0  0
   22.1272   -8.7072    0.0000 C    0  0  0  0  0  0  0  0  0  0  0  0
   17.5199   -8.7072    0.0000 C    0  0  0  0  0  0  0  0  0  0  0  0
   18.6717   -9.3722    0.0000 C    0  0  0  0  0  0  0  0  0  0  0  0
   16.3681   -9.3722    0.0000 C    0  0  0  0  0  0  0  0  0  0  0  0
   18.6717  -10.7022    0.0000 C    0  0  0  0  0  0  0  0  0  0  0  0
   16.3681  -10.7022    0.0000 N    0  0  0  0  0  0  0  0  0  0  0  0
   17.5199  -11.3672    0.0000 C    0  0  0  0  0  0  0  0  0  0  0  0
   15.2163   -7.3772    0.0000 C    0  0  0  0  0  0  0  0  0  0  0  0
   15.2163   -8.7072    0.0000 C    0  0  0  0  0  0  0  0  0  0  0  0
   14.0645   -6.7122    0.0000 C    0  0  0  0  0  0  0  0  0  0  0  0
   14.0645   -9.3722    0.0000 C    0  0  0  0  0  0  0  0  0  0  0  0
   12.9127   -7.3772    0.0000 C    0  0  0  0  0  0  0  0  0  0  0  0
   12.9127   -8.7072    0.0000 C    0  0  0  0  0  0  0  0  0  0  0  0
   11.7609   -9.3722    0.0000 C    0  0  0  0  0  0  0  0  0  0  0  0
   11.0959   -8.2204    0.0000 C    0  0  0  0  0  0  0  0  0  0  0  0
   12.4259  -10.5240    0.0000 C    0  0  0  0  0  0  0  0  0  0  0  0
   10.6091  -10.0372    0.0000 C    0  0  0  0  0  0  0  0  0  0  0  0
   19.8236   -4.7172    0.0000 Rh   0  0  0  0  0  0  0  0  0  0  0  0
   19.1586   -3.5654    0.0000 Br   0  0  0  0  0  0  0  0  0  0  0  0
   20.4886   -5.8690    0.0000 Br   0  0  0  0  0  0  0  0  0  0  0  0
   20.9754   -4.0522    0.0000 C    0  0  0  0  0  0  0  0  0  0  0  0
  1  2  1  0  0  0  0
  1  3  2  0  0  0  0
  2  4  2  0  0  0  0
  3  5  1  0  0  0  0
  4  6  1  0  0  0  0
  5  6  2  0  0  0  0
  7  8  1  0  0  0  0
  7  9  2  0  0  0  0
  8 10  2  0  0  0  0
  9 11  1  0  0  0  0
 10 12  1  0  0  0  0
 11 12  2  0  0  0  0
  2  7  1  0  0  0  0
 13 14  1  0  0  0  0
 13 15  2  0  0  0  0
 14 16  2  0  0  0  0
 15 17  1  0  0  0  0
 16 18  1  0  0  0  0
 17 18  2  0  0  0  0
  4 13  1  0  0  0  0
 19 20  1  0  0  0  0
 19 21  2  0  0  0  0
 20 22  2  0  0  0  0
 21 23  1  0  0  0  0
 22 24  1  0  0  0  0
 23 24  2  0  0  0  0
  6 19  1  0  0  0  0
 25 26  1  0  0  0  0
 25 27  1  0  0  0  0
 25 28  1  0  0  0  0
 24 25  1  0  0  0  0
 29 30  1  0  0  0  0
 29 31  1  0  0  0  0
 29 32  1  0  0  0  0
  1 29  1  0  0  0  0
M  END
> <NMREDATA_VERSION>
1.1

> <NMREDATA_LEVEL>
0

> <NMREDATA_SOLVENT>
CD2Cl2

> <NMREDATA_TEMPERATURE>
298

> <NMREDATA_FORMULA>
C26H27Br2N3Rh

> <NMREDATA_SMILES>
CC(c1ccc(cc1)C1=CC=N(C(=C1c1cccnc1)c1cccnc1)[Rh](Br)(Br)C)(C)C

> <NMREDATA_ASSIGNMENT>
Rh29, 3366.00, 29

> <NMREDATA_1D_103Rh>
3366.00, L=Rh29

$$$$

  ACD/LABS03242411312D

 33 36  0  0  0  0  0  0  0  0  1 V2000
   18.6717   -5.3822    0.0000 N    0  0  0  0  0  0  0  0  0  0  0  0
   18.6717   -6.7122    0.0000 C    0  0  0  0  0  0  0  0  0  0  0  0
   17.5199   -4.7172    0.0000 C    0  0  0  0  0  0  0  0  0  0  0  0
   17.5199   -7.3772    0.0000 C    0  0  0  0  0  0  0  0  0  0  0  0
   16.3681   -5.3822    0.0000 C    0  0  0  0  0  0  0  0  0  0  0  0
   16.3681   -6.7122    0.0000 C    0  0  0  0  0  0  0  0  0  0  0  0
   19.8236   -7.3772    0.0000 C    0  0  0  0  0  0  0  0  0  0  0  0
   20.9754   -6.7122    0.0000 C    0  0  0  0  0  0  0  0  0  0  0  0
   19.8236   -8.7072    0.0000 C    0  0  0  0  0  0  0  0  0  0  0  0
   22.1272   -7.3772    0.0000 C    0  0  0  0  0  0  0  0  0  0  0  0
   20.9754   -9.3722    0.0000 N    0  0  0  0  0  0  0  0  0  0  0  0
   22.1272   -8.7072    0.0000 C    0  0  0  0  0  0  0  0  0  0  0  0
   17.5199   -8.7072    0.0000 C    0  0  0  0  0  0  0  0  0  0  0  0
   18.6717   -9.3722    0.0000 C    0  0  0  0  0  0  0  0  0  0  0  0
   16.3681   -9.3722    0.0000 C    0  0  0  0  0  0  0  0  0  0  0  0
   18.6717  -10.7022    0.0000 C    0  0  0  0  0  0  0  0  0  0  0  0
   16.3681  -10.7022    0.0000 N    0  0  0  0  0  0  0  0  0  0  0  0
   17.5199  -11.3672    0.0000 C    0  0  0  0  0  0  0  0  0  0  0  0
   15.2163   -7.3772    0.0000 C    0  0  0  0  0  0  0  0  0  0  0  0
   15.2163   -8.7072    0.0000 C    0  0  0  0  0  0  0  0  0  0  0  0
   14.0645   -6.7122    0.0000 C    0  0  0  0  0  0  0  0  0  0  0  0
   14.0645   -9.3722    0.0000 C    0  0  0  0  0  0  0  0  0  0  0  0
   12.9127   -7.3772    0.0000 C    0  0  0  0  0  0  0  0  0  0  0  0
   12.9127   -8.7072    0.0000 C    0  0  0  0  0  0  0  0  0  0  0  0
   11.7609   -9.3722    0.0000 C    0  0  0  0  0  0  0  0  0  0  0  0
   11.0959   -8.2204    0.0000 C    0  0  0  0  0  0  0  0  0  0  0  0
   12.4259  -10.5240    0.0000 C    0  0  0  0  0  0  0  0  0  0  0  0
   10.6091  -10.0372    0.0000 C    0  0  0  0  0  0  0  0  0  0  0  0
   19.8236   -4.7172    0.0000 Rh   0  0  0  0  0  0  0  0  0  0  0  0
   19.1586   -3.5654    0.0000 Br   0  0  0  0  0  0  0  0  0  0  0  0
   20.4886   -5.8690    0.0000 Br   0  0  0  0  0  0  0  0  0  0  0  0
   20.9754   -4.0522    0.0000 C    0  0  0  0  0  0  0  0  0  0  0  0
   22.1272   -4.7172    0.0000 C    0  0  0  0  0  0  0  0  0  0  0  0
  1  2  1  0  0  0  0
  1  3  2  0  0  0  0
  2  4  2  0  0  0  0
  3  5  1  0  0  0  0
  4  6  1  0  0  0  0
  5  6  2  0  0  0  0
  7  8  1  0  0  0  0
  7  9  2  0  0  0  0
  8 10  2  0  0  0  0
  9 11  1  0  0  0  0
 10 12  1  0  0  0  0
 11 12  2  0  0  0  0
  2  7  1  0  0  0  0
 13 14  1  0  0  0  0
 13 15  2  0  0  0  0
 14 16  2  0  0  0  0
 15 17  1  0  0  0  0
 16 18  1  0  0  0  0
 17 18  2  0  0  0  0
  4 13  1  0  0  0  0
 19 20  1  0  0  0  0
 19 21  2  0  0  0  0
 20 22  2  0  0  0  0
 21 23  1  0  0  0  0
 22 24  1  0  0  0  0
 23 24  2  0  0  0  0
  6 19  1  0  0  0  0
 25 26  1  0  0  0  0
 25 27  1  0  0  0  0
 25 28  1  0  0  0  0
 24 25  1  0  0  0  0
 29 30  1  0  0  0  0
 29 31  1  0  0  0  0
 29 32  1  0  0  0  0
  1 29  1  0  0  0  0
 32 33  1  0  0  0  0
M  END
> <NMREDATA_VERSION>
1.1

> <NMREDATA_LEVEL>
0

> <NMREDATA_SOLVENT>
CD2Cl2

> <NMREDATA_TEMPERATURE>
298

> <NMREDATA_FORMULA>
C27H29Br2N3Rh

> <NMREDATA_SMILES>
CC[Rh](N1=CC=C(C(=C1c1cccnc1)c1cccnc1)c1ccc(cc1)C(C)(C)C)(Br)Br

> <NMREDATA_ASSIGNMENT>
Rh29, 3365.00, 29

> <NMREDATA_1D_103Rh>
3365.00, L=Rh29

$$$$

  ACD/LABS03242411322D

 35 38  0  0  0  0  0  0  0  0  1 V2000
   18.3542   -5.3822    0.0000 N    0  0  0  0  0  0  0  0  0  0  0  0
   18.3542   -6.7122    0.0000 C    0  0  0  0  0  0  0  0  0  0  0  0
   17.2024   -4.7172    0.0000 C    0  0  0  0  0  0  0  0  0  0  0  0
   17.2024   -7.3772    0.0000 C    0  0  0  0  0  0  0  0  0  0  0  0
   16.0506   -5.3822    0.0000 C    0  0  0  0  0  0  0  0  0  0  0  0
   16.0506   -6.7122    0.0000 C    0  0  0  0  0  0  0  0  0  0  0  0
   19.5061   -7.3772    0.0000 C    0  0  0  0  0  0  0  0  0  0  0  0
   20.6579   -6.7122    0.0000 C    0  0  0  0  0  0  0  0  0  0  0  0
   19.5061   -8.7072    0.0000 C    0  0  0  0  0  0  0  0  0  0  0  0
   21.8097   -7.3772    0.0000 C    0  0  0  0  0  0  0  0  0  0  0  0
   20.6579   -9.3722    0.0000 N    0  0  0  0  0  0  0  0  0  0  0  0
   21.8097   -8.7072    0.0000 C    0  0  0  0  0  0  0  0  0  0  0  0
   17.2024   -8.7072    0.0000 C    0  0  0  0  0  0  0  0  0  0  0  0
   18.3542   -9.3722    0.0000 C    0  0  0  0  0  0  0  0  0  0  0  0
   16.0506   -9.3722    0.0000 C    0  0  0  0  0  0  0  0  0  0  0  0
   18.3542  -10.7022    0.0000 C    0  0  0  0  0  0  0  0  0  0  0  0
   16.0506  -10.7022    0.0000 N    0  0  0  0  0  0  0  0  0  0  0  0
   17.2024  -11.3672    0.0000 C    0  0  0  0  0  0  0  0  0  0  0  0
   14.8988   -7.3772    0.0000 C    0  0  0  0  0  0  0  0  0  0  0  0
   14.8988   -8.7072    0.0000 C    0  0  0  0  0  0  0  0  0  0  0  0
   13.7470   -6.7122    0.0000 C    0  0  0  0  0  0  0  0  0  0  0  0
   13.7470   -9.3722    0.0000 C    0  0  0  0  0  0  0  0  0  0  0  0
   12.5952   -7.3772    0.0000 C    0  0  0  0  0  0  0  0  0  0  0  0
   12.5952   -8.7072    0.0000 C    0  0  0  0  0  0  0  0  0  0  0  0
   11.4434   -9.3722    0.0000 C    0  0  0  0  0  0  0  0  0  0  0  0
   10.7783   -8.2204    0.0000 C    0  0  0  0  0  0  0  0  0  0  0  0
   12.1084  -10.5240    0.0000 C    0  0  0  0  0  0  0  0  0  0  0  0
   10.2915  -10.0372    0.0000 C    0  0  0  0  0  0  0  0  0  0  0  0
   19.5061   -4.7172    0.0000 Rh   0  0  0  0  0  0  0  0  0  0  0  0
   18.8410   -3.5654    0.0000 Br   0  0  0  0  0  0  0  0  0  0  0  0
   20.1710   -5.8690    0.0000 Br   0  0  0  0  0  0  0  0  0  0  0  0
   20.6579   -4.0522    0.0000 C    0  0  0  0  0  0  0  0  0  0  0  0
   21.8097   -4.7172    0.0000 C    0  0  0  0  0  0  0  0  0  0  0  0
   22.9615   -4.0522    0.0000 C    0  0  0  0  0  0  0  0  0  0  0  0
   24.1133   -4.7172    0.0000 C    0  0  0  0  0  0  0  0  0  0  0  0
  1  2  1  0  0  0  0
  1  3  2  0  0  0  0
  2  4  2  0  0  0  0
  3  5  1  0  0  0  0
  4  6  1  0  0  0  0
  5  6  2  0  0  0  0
  7  8  1  0  0  0  0
  7  9  2  0  0  0  0
  8 10  2  0  0  0  0
  9 11  1  0  0  0  0
 10 12  1  0  0  0  0
 11 12  2  0  0  0  0
  2  7  1  0  0  0  0
 13 14  1  0  0  0  0
 13 15  2  0  0  0  0
 14 16  2  0  0  0  0
 15 17  1  0  0  0  0
 16 18  1  0  0  0  0
 17 18  2  0  0  0  0
  4 13  1  0  0  0  0
 19 20  1  0  0  0  0
 19 21  2  0  0  0  0
 20 22  2  0  0  0  0
 21 23  1  0  0  0  0
 22 24  1  0  0  0  0
 23 24  2  0  0  0  0
  6 19  1  0  0  0  0
 25 26  1  0  0  0  0
 25 27  1  0  0  0  0
 25 28  1  0  0  0  0
 24 25  1  0  0  0  0
 29 30  1  0  0  0  0
 29 31  1  0  0  0  0
 29 32  1  0  0  0  0
  1 29  1  0  0  0  0
 32 33  1  0  0  0  0
 33 34  1  0  0  0  0
 34 35  1  0  0  0  0
M  END
> <NMREDATA_VERSION>
1.1

> <NMREDATA_LEVEL>
0

> <NMREDATA_SOLVENT>
CD2Cl2

> <NMREDATA_TEMPERATURE>
298

> <NMREDATA_FORMULA>
C29H33Br2N3Rh

> <NMREDATA_SMILES>
CCCC[Rh](N1=CC=C(C(=C1c1cccnc1)c1cccnc1)c1ccc(cc1)C(C)(C)C)(Br)Br

> <NMREDATA_ASSIGNMENT>
Rh29, 3380.00, 29

> <NMREDATA_1D_103Rh>
3380.00, L=Rh29

$$$$

  ACD/LABS03242411362D

 41 44  0  0  0  0  0  0  0  0  7 V2000
   18.3542  -11.3272    0.0000 N    0  0  0  0  0  0  0  0  0  0  0  0
   18.3542  -12.6572    0.0000 C    0  0  0  0  0  0  0  0  0  0  0  0
   17.2024  -10.6622    0.0000 C    0  0  0  0  0  0  0  0  0  0  0  0
   17.2024  -13.3222    0.0000 C    0  0  0  0  0  0  0  0  0  0  0  0
   16.0506  -11.3272    0.0000 C    0  0  0  0  0  0  0  0  0  0  0  0
   16.0506  -12.6572    0.0000 C    0  0  0  0  0  0  0  0  0  0  0  0
   19.5061  -13.3222    0.0000 C    0  0  0  0  0  0  0  0  0  0  0  0
   20.6579  -12.6572    0.0000 C    0  0  0  0  0  0  0  0  0  0  0  0
   19.5061  -14.6522    0.0000 C    0  0  0  0  0  0  0  0  0  0  0  0
   21.8097  -13.3222    0.0000 C    0  0  0  0  0  0  0  0  0  0  0  0
   20.6579  -15.3172    0.0000 N    0  0  0  0  0  0  0  0  0  0  0  0
   21.8097  -14.6522    0.0000 C    0  0  0  0  0  0  0  0  0  0  0  0
   17.2024  -14.6522    0.0000 C    0  0  0  0  0  0  0  0  0  0  0  0
   18.3542  -15.3172    0.0000 C    0  0  0  0  0  0  0  0  0  0  0  0
   16.0506  -15.3172    0.0000 C    0  0  0  0  0  0  0  0  0  0  0  0
   18.3542  -16.6472    0.0000 C    0  0  0  0  0  0  0  0  0  0  0  0
   16.0506  -16.6472    0.0000 N    0  0  0  0  0  0  0  0  0  0  0  0
   17.2024  -17.3122    0.0000 C    0  0  0  0  0  0  0  0  0  0  0  0
   14.8988  -13.3222    0.0000 C    0  0  0  0  0  0  0  0  0  0  0  0
   14.8988  -14.6522    0.0000 C    0  0  0  0  0  0  0  0  0  0  0  0
   13.7470  -12.6572    0.0000 C    0  0  0  0  0  0  0  0  0  0  0  0
   13.7470  -15.3172    0.0000 C    0  0  0  0  0  0  0  0  0  0  0  0
   12.5952  -13.3222    0.0000 C    0  0  0  0  0  0  0  0  0  0  0  0
   12.5952  -14.6522    0.0000 C    0  0  0  0  0  0  0  0  0  0  0  0
   11.4434  -15.3172    0.0000 C    0  0  0  0  0  0  0  0  0  0  0  0
   10.7784  -14.1654    0.0000 C    0  0  0  0  0  0  0  0  0  0  0  0
   12.1084  -16.4690    0.0000 C    0  0  0  0  0  0  0  0  0  0  0  0
   10.2915  -15.9822    0.0000 C    0  0  0  0  0  0  0  0  0  0  0  0
   19.5061  -10.6622    0.0000 Rh   0  0  0  0  0  0  0  0  0  0  0  0
   18.8410   -9.5104    0.0000 Br   0  0  0  0  0  0  0  0  0  0  0  0
   20.1710  -11.8140    0.0000 Br   0  0  0  0  0  0  0  0  0  0  0  0
   20.6579   -9.9972    0.0000 C    0  0  0  0  0  0  0  0  0  0  0  0
   20.6579   -8.6672    0.0000 C    0  0  0  0  0  0  0  0  0  0  0  0
   21.8097   -8.0022    0.0000 C    0  0  0  0  0  0  0  0  0  0  0  0
   21.8097   -6.6722    0.0000 C    0  0  0  0  0  0  0  0  0  0  0  0
   22.9615   -6.0072    0.0000 C    0  0  0  0  0  0  0  0  0  0  0  0
   22.9615   -4.6772    0.0000 C    0  0  0  0  0  0  0  0  0  0  0  0
   24.1133   -4.0122    0.0000 C    0  0  0  0  0  0  0  0  0  0  0  0
   24.1133   -2.6822    0.0000 C    0  0  0  0  0  0  0  0  0  0  0  0
   25.2651   -2.0172    0.0000 C    0  0  0  0  0  0  0  0  0  0  0  0
   25.2651   -0.6872    0.0000 C    0  0  0  0  0  0  0  0  0  0  0  0
  1  2  1  0  0  0  0
  1  3  2  0  0  0  0
  2  4  2  0  0  0  0
  3  5  1  0  0  0  0
  4  6  1  0  0  0  0
  5  6  2  0  0  0  0
  7  8  1  0  0  0  0
  7  9  2  0  0  0  0
  8 10  2  0  0  0  0
  9 11  1  0  0  0  0
 10 12  1  0  0  0  0
 11 12  2  0  0  0  0
  2  7  1  0  0  0  0
 13 14  1  0  0  0  0
 13 15  2  0  0  0  0
 14 16  2  0  0  0  0
 15 17  1  0  0  0  0
 16 18  1  0  0  0  0
 17 18  2  0  0  0  0
  4 13  1  0  0  0  0
 19 20  1  0  0  0  0
 19 21  2  0  0  0  0
 20 22  2  0  0  0  0
 21 23  1  0  0  0  0
 22 24  1  0  0  0  0
 23 24  2  0  0  0  0
  6 19  1  0  0  0  0
 25 26  1  0  0  0  0
 25 27  1  0  0  0  0
 25 28  1  0  0  0  0
 24 25  1  0  0  0  0
 29 30  1  0  0  0  0
 29 31  1  0  0  0  0
  1 29  1  0  0  0  0
 29 32  1  0  0  0  0
 32 33  1  0  0  0  0
 33 34  1  0  0  0  0
 34 35  1  0  0  0  0
 35 36  1  0  0  0  0
 36 37  1  0  0  0  0
 37 38  1  0  0  0  0
 38 39  1  0  0  0  0
 39 40  1  0  0  0  0
 40 41  1  0  0  0  0
M  END
> <NMREDATA_VERSION>
1.1

> <NMREDATA_LEVEL>
0

> <NMREDATA_SOLVENT>
CD2Cl2

> <NMREDATA_TEMPERATURE>
298

> <NMREDATA_FORMULA>
C35H45Br2N3Rh

> <NMREDATA_SMILES>
CCCCCCCCCC[Rh](N1=CC=C(C(=C1c1cccnc1)c1cccnc1)c1ccc(cc1)C(C)(C)C)(Br)Br

> <NMREDATA_ASSIGNMENT>
Rh29, 3375.00, 29

> <NMREDATA_1D_103Rh>
3375.00, L=Rh29

$$$$

  ACD/LABS03242411372D

 34 37  0  0  0  0  0  0  0  0  1 V2000
   19.2040   -5.3822    0.0000 N    0  0  0  0  0  0  0  0  0  0  0  0
   19.2040   -6.7122    0.0000 C    0  0  0  0  0  0  0  0  0  0  0  0
   18.0522   -4.7172    0.0000 C    0  0  0  0  0  0  0  0  0  0  0  0
   18.0522   -7.3772    0.0000 C    0  0  0  0  0  0  0  0  0  0  0  0
   16.9004   -5.3822    0.0000 C    0  0  0  0  0  0  0  0  0  0  0  0
   16.9004   -6.7122    0.0000 C    0  0  0  0  0  0  0  0  0  0  0  0
   20.3558   -7.3772    0.0000 C    0  0  0  0  0  0  0  0  0  0  0  0
   21.5077   -6.7122    0.0000 C    0  0  0  0  0  0  0  0  0  0  0  0
   20.3559   -8.7072    0.0000 C    0  0  0  0  0  0  0  0  0  0  0  0
   22.6595   -7.3772    0.0000 C    0  0  0  0  0  0  0  0  0  0  0  0
   21.5077   -9.3722    0.0000 N    0  0  0  0  0  0  0  0  0  0  0  0
   22.6595   -8.7072    0.0000 C    0  0  0  0  0  0  0  0  0  0  0  0
   18.0522   -8.7072    0.0000 C    0  0  0  0  0  0  0  0  0  0  0  0
   19.2040   -9.3722    0.0000 C    0  0  0  0  0  0  0  0  0  0  0  0
   16.9004   -9.3722    0.0000 C    0  0  0  0  0  0  0  0  0  0  0  0
   19.2040  -10.7022    0.0000 C    0  0  0  0  0  0  0  0  0  0  0  0
   16.9004  -10.7022    0.0000 N    0  0  0  0  0  0  0  0  0  0  0  0
   18.0522  -11.3672    0.0000 C    0  0  0  0  0  0  0  0  0  0  0  0
   15.7486   -7.3772    0.0000 C    0  0  0  0  0  0  0  0  0  0  0  0
   15.7486   -8.7072    0.0000 C    0  0  0  0  0  0  0  0  0  0  0  0
   14.5968   -6.7122    0.0000 C    0  0  0  0  0  0  0  0  0  0  0  0
   14.5968   -9.3722    0.0000 C    0  0  0  0  0  0  0  0  0  0  0  0
   13.4450   -7.3772    0.0000 C    0  0  0  0  0  0  0  0  0  0  0  0
   13.4450   -8.7072    0.0000 C    0  0  0  0  0  0  0  0  0  0  0  0
   12.2932   -9.3722    0.0000 C    0  0  0  0  0  0  0  0  0  0  0  0
   11.6282   -8.2204    0.0000 C    0  0  0  0  0  0  0  0  0  0  0  0
   12.9582  -10.5240    0.0000 C    0  0  0  0  0  0  0  0  0  0  0  0
   11.1413  -10.0372    0.0000 C    0  0  0  0  0  0  0  0  0  0  0  0
   20.3559   -4.7172    0.0000 Rh   0  0  0  0  0  0  0  0  0  0  0  0
   19.6909   -3.5654    0.0000 Br   0  0  0  0  0  0  0  0  0  0  0  0
   21.0209   -5.8690    0.0000 Br   0  0  0  0  0  0  0  0  0  0  0  0
   21.5077   -4.0522    0.0000 C    0  0  0  0  0  0  0  0  0  0  0  0
   22.6595   -4.7172    0.0000 C    0  0  0  0  0  0  0  0  0  0  0  0
   23.8113   -4.0522    0.0000 C    0  0  0  0  0  0  0  0  0  0  0  0
  1  2  1  0  0  0  0
  1  3  2  0  0  0  0
  2  4  2  0  0  0  0
  3  5  1  0  0  0  0
  4  6  1  0  0  0  0
  5  6  2  0  0  0  0
  7  8  1  0  0  0  0
  7  9  2  0  0  0  0
  8 10  2  0  0  0  0
  9 11  1  0  0  0  0
 10 12  1  0  0  0  0
 11 12  2  0  0  0  0
  2  7  1  0  0  0  0
 13 14  1  0  0  0  0
 13 15  2  0  0  0  0
 14 16  2  0  0  0  0
 15 17  1  0  0  0  0
 16 18  1  0  0  0  0
 17 18  2  0  0  0  0
  4 13  1  0  0  0  0
 19 20  1  0  0  0  0
 19 21  2  0  0  0  0
 20 22  2  0  0  0  0
 21 23  1  0  0  0  0
 22 24  1  0  0  0  0
 23 24  2  0  0  0  0
  6 19  1  0  0  0  0
 25 26  1  0  0  0  0
 25 27  1  0  0  0  0
 25 28  1  0  0  0  0
 24 25  1  0  0  0  0
 29 30  1  0  0  0  0
 29 31  1  0  0  0  0
  1 29  1  0  0  0  0
 29 32  1  0  0  0  0
 32 33  1  0  0  0  0
 33 34  2  0  0  0  0
M  END
> <NMREDATA_VERSION>
1.1

> <NMREDATA_LEVEL>
0

> <NMREDATA_SOLVENT>
CD2Cl2

> <NMREDATA_TEMPERATURE>
298

> <NMREDATA_FORMULA>
C28H29Br2N3Rh

> <NMREDATA_SMILES>
C=CC[Rh](N1=CC=C(C(=C1c1cccnc1)c1cccnc1)c1ccc(cc1)C(C)(C)C)(Br)Br

> <NMREDATA_ASSIGNMENT>
Rh29, 3533.00, 29

> <NMREDATA_1D_103Rh>
3533.00, L=Rh29

$$$$

  ACD/LABS03242411382D

 35 38  0  0  0  0  0  0  0  0  1 V2000
   19.2040   -5.3822    0.0000 N    0  0  0  0  0  0  0  0  0  0  0  0
   19.2040   -6.7122    0.0000 C    0  0  0  0  0  0  0  0  0  0  0  0
   18.0522   -4.7172    0.0000 C    0  0  0  0  0  0  0  0  0  0  0  0
   18.0522   -7.3772    0.0000 C    0  0  0  0  0  0  0  0  0  0  0  0
   16.9004   -5.3822    0.0000 C    0  0  0  0  0  0  0  0  0  0  0  0
   16.9004   -6.7122    0.0000 C    0  0  0  0  0  0  0  0  0  0  0  0
   20.3558   -7.3772    0.0000 C    0  0  0  0  0  0  0  0  0  0  0  0
   21.5077   -6.7122    0.0000 C    0  0  0  0  0  0  0  0  0  0  0  0
   20.3559   -8.7072    0.0000 C    0  0  0  0  0  0  0  0  0  0  0  0
   22.6595   -7.3772    0.0000 C    0  0  0  0  0  0  0  0  0  0  0  0
   21.5077   -9.3722    0.0000 N    0  0  0  0  0  0  0  0  0  0  0  0
   22.6595   -8.7072    0.0000 C    0  0  0  0  0  0  0  0  0  0  0  0
   18.0522   -8.7072    0.0000 C    0  0  0  0  0  0  0  0  0  0  0  0
   19.2040   -9.3722    0.0000 C    0  0  0  0  0  0  0  0  0  0  0  0
   16.9004   -9.3722    0.0000 C    0  0  0  0  0  0  0  0  0  0  0  0
   19.2040  -10.7022    0.0000 C    0  0  0  0  0  0  0  0  0  0  0  0
   16.9004  -10.7022    0.0000 N    0  0  0  0  0  0  0  0  0  0  0  0
   18.0522  -11.3672    0.0000 C    0  0  0  0  0  0  0  0  0  0  0  0
   15.7486   -7.3772    0.0000 C    0  0  0  0  0  0  0  0  0  0  0  0
   15.7486   -8.7072    0.0000 C    0  0  0  0  0  0  0  0  0  0  0  0
   14.5968   -6.7122    0.0000 C    0  0  0  0  0  0  0  0  0  0  0  0
   14.5968   -9.3722    0.0000 C    0  0  0  0  0  0  0  0  0  0  0  0
   13.4450   -7.3772    0.0000 C    0  0  0  0  0  0  0  0  0  0  0  0
   13.4450   -8.7072    0.0000 C    0  0  0  0  0  0  0  0  0  0  0  0
   12.2932   -9.3722    0.0000 C    0  0  0  0  0  0  0  0  0  0  0  0
   11.6282   -8.2204    0.0000 C    0  0  0  0  0  0  0  0  0  0  0  0
   12.9582  -10.5240    0.0000 C    0  0  0  0  0  0  0  0  0  0  0  0
   11.1413  -10.0372    0.0000 C    0  0  0  0  0  0  0  0  0  0  0  0
   20.3559   -4.7172    0.0000 Rh   0  0  0  0  0  0  0  0  0  0  0  0
   19.6909   -3.5654    0.0000 Br   0  0  0  0  0  0  0  0  0  0  0  0
   21.0209   -5.8690    0.0000 Br   0  0  0  0  0  0  0  0  0  0  0  0
   21.5077   -4.0522    0.0000 C    0  0  0  0  0  0  0  0  0  0  0  0
   22.6595   -4.7172    0.0000 C    0  0  0  0  0  0  0  0  0  0  0  0
   23.8113   -4.0522    0.0000 C    0  0  0  0  0  0  0  0  0  0  0  0
   22.6595   -6.0472    0.0000 C    0  0  0  0  0  0  0  0  0  0  0  0
  1  2  1  0  0  0  0
  1  3  2  0  0  0  0
  2  4  2  0  0  0  0
  3  5  1  0  0  0  0
  4  6  1  0  0  0  0
  5  6  2  0  0  0  0
  7  8  1  0  0  0  0
  7  9  2  0  0  0  0
  8 10  2  0  0  0  0
  9 11  1  0  0  0  0
 10 12  1  0  0  0  0
 11 12  2  0  0  0  0
  2  7  1  0  0  0  0
 13 14  1  0  0  0  0
 13 15  2  0  0  0  0
 14 16  2  0  0  0  0
 15 17  1  0  0  0  0
 16 18  1  0  0  0  0
 17 18  2  0  0  0  0
  4 13  1  0  0  0  0
 19 20  1  0  0  0  0
 19 21  2  0  0  0  0
 20 22  2  0  0  0  0
 21 23  1  0  0  0  0
 22 24  1  0  0  0  0
 23 24  2  0  0  0  0
  6 19  1  0  0  0  0
 25 26  1  0  0  0  0
 25 27  1  0  0  0  0
 25 28  1  0  0  0  0
 24 25  1  0  0  0  0
 29 30  1  0  0  0  0
 29 31  1  0  0  0  0
  1 29  1  0  0  0  0
 29 32  1  0  0  0  0
 32 33  1  0  0  0  0
 33 34  2  0  0  0  0
 33 35  1  0  0  0  0
M  END
> <NMREDATA_VERSION>
1.1

> <NMREDATA_LEVEL>
0

> <NMREDATA_SOLVENT>
CD2Cl2

> <NMREDATA_TEMPERATURE>
298

> <NMREDATA_FORMULA>
C29H31Br2N3Rh

> <NMREDATA_SMILES>
CC(=C)C[Rh](N1=CC=C(C(=C1c1cccnc1)c1cccnc1)c1ccc(cc1)C(C)(C)C)(Br)Br

> <NMREDATA_ASSIGNMENT>
Rh29, 3345.00, 29

> <NMREDATA_1D_103Rh>
3345.00, L=Rh29

$$$$

  ACD/LABS03242411392D

 35 38  0  0  0  0  0  0  0  0  1 V2000
   19.2040   -5.3822    0.0000 N    0  0  0  0  0  0  0  0  0  0  0  0
   19.2040   -6.7122    0.0000 C    0  0  0  0  0  0  0  0  0  0  0  0
   18.0522   -4.7172    0.0000 C    0  0  0  0  0  0  0  0  0  0  0  0
   18.0522   -7.3772    0.0000 C    0  0  0  0  0  0  0  0  0  0  0  0
   16.9004   -5.3822    0.0000 C    0  0  0  0  0  0  0  0  0  0  0  0
   16.9004   -6.7122    0.0000 C    0  0  0  0  0  0  0  0  0  0  0  0
   20.3558   -7.3772    0.0000 C    0  0  0  0  0  0  0  0  0  0  0  0
   21.5077   -6.7122    0.0000 C    0  0  0  0  0  0  0  0  0  0  0  0
   20.3559   -8.7072    0.0000 C    0  0  0  0  0  0  0  0  0  0  0  0
   22.6595   -7.3772    0.0000 C    0  0  0  0  0  0  0  0  0  0  0  0
   21.5077   -9.3722    0.0000 N    0  0  0  0  0  0  0  0  0  0  0  0
   22.6595   -8.7072    0.0000 C    0  0  0  0  0  0  0  0  0  0  0  0
   18.0522   -8.7072    0.0000 C    0  0  0  0  0  0  0  0  0  0  0  0
   19.2040   -9.3722    0.0000 C    0  0  0  0  0  0  0  0  0  0  0  0
   16.9004   -9.3722    0.0000 C    0  0  0  0  0  0  0  0  0  0  0  0
   19.2040  -10.7022    0.0000 C    0  0  0  0  0  0  0  0  0  0  0  0
   16.9004  -10.7022    0.0000 N    0  0  0  0  0  0  0  0  0  0  0  0
   18.0522  -11.3672    0.0000 C    0  0  0  0  0  0  0  0  0  0  0  0
   15.7486   -7.3772    0.0000 C    0  0  0  0  0  0  0  0  0  0  0  0
   15.7486   -8.7072    0.0000 C    0  0  0  0  0  0  0  0  0  0  0  0
   14.5968   -6.7122    0.0000 C    0  0  0  0  0  0  0  0  0  0  0  0
   14.5968   -9.3722    0.0000 C    0  0  0  0  0  0  0  0  0  0  0  0
   13.4450   -7.3772    0.0000 C    0  0  0  0  0  0  0  0  0  0  0  0
   13.4450   -8.7072    0.0000 C    0  0  0  0  0  0  0  0  0  0  0  0
   12.2932   -9.3722    0.0000 C    0  0  0  0  0  0  0  0  0  0  0  0
   11.6282   -8.2204    0.0000 C    0  0  0  0  0  0  0  0  0  0  0  0
   12.9582  -10.5240    0.0000 C    0  0  0  0  0  0  0  0  0  0  0  0
   11.1413  -10.0372    0.0000 C    0  0  0  0  0  0  0  0  0  0  0  0
   20.3559   -4.7172    0.0000 Rh   0  0  0  0  0  0  0  0  0  0  0  0
   19.6909   -3.5654    0.0000 Br   0  0  0  0  0  0  0  0  0  0  0  0
   21.0209   -5.8690    0.0000 Br   0  0  0  0  0  0  0  0  0  0  0  0
   21.5077   -4.0522    0.0000 C    0  0  0  0  0  0  0  0  0  0  0  0
   22.6595   -4.7172    0.0000 C    0  0  0  0  0  0  0  0  0  0  0  0
   23.8113   -4.0522    0.0000 C    0  0  0  0  0  0  0  0  0  0  0  0
   24.9631   -4.7172    0.0000 C    0  0  0  0  0  0  0  0  0  0  0  0
  1  2  1  0  0  0  0
  1  3  2  0  0  0  0
  2  4  2  0  0  0  0
  3  5  1  0  0  0  0
  4  6  1  0  0  0  0
  5  6  2  0  0  0  0
  7  8  1  0  0  0  0
  7  9  2  0  0  0  0
  8 10  2  0  0  0  0
  9 11  1  0  0  0  0
 10 12  1  0  0  0  0
 11 12  2  0  0  0  0
  2  7  1  0  0  0  0
 13 14  1  0  0  0  0
 13 15  2  0  0  0  0
 14 16  2  0  0  0  0
 15 17  1  0  0  0  0
 16 18  1  0  0  0  0
 17 18  2  0  0  0  0
  4 13  1  0  0  0  0
 19 20  1  0  0  0  0
 19 21  2  0  0  0  0
 20 22  2  0  0  0  0
 21 23  1  0  0  0  0
 22 24  1  0  0  0  0
 23 24  2  0  0  0  0
  6 19  1  0  0  0  0
 25 26  1  0  0  0  0
 25 27  1  0  0  0  0
 25 28  1  0  0  0  0
 24 25  1  0  0  0  0
 29 30  1  0  0  0  0
 29 31  1  0  0  0  0
  1 29  1  0  0  0  0
 29 32  1  0  0  0  0
 32 33  1  0  0  0  0
 33 34  1  0  0  0  0
 34 35  2  0  0  0  0
M  END
> <NMREDATA_VERSION>
1.1

> <NMREDATA_LEVEL>
0

> <NMREDATA_SOLVENT>
CD2Cl2

> <NMREDATA_TEMPERATURE>
298

> <NMREDATA_FORMULA>
C29H31Br2N3Rh

> <NMREDATA_SMILES>
C=CCC[Rh](N1=CC=C(C(=C1c1cccnc1)c1cccnc1)c1ccc(cc1)C(C)(C)C)(Br)Br

> <NMREDATA_ASSIGNMENT>
Rh29, 3396.00, 29

> <NMREDATA_1D_103Rh>
3396.00, L=Rh29

$$$$

  ACD/LABS03242411402D

 13 12  0  0  0  0  0  0  0  0  1 V2000
    9.1664   -7.1085    0.0000 O    0  0  0  0  0  0  0  0  0  0  0  0
   10.4964   -7.1085    0.0000 N    0  0  0  0  0  0  0  0  0  0  0  0
   11.1614   -8.2603    0.0000 C    0  0  0  0  0  0  0  0  0  0  0  0
   10.4964   -9.4121    0.0000 C    0  0  0  0  0  0  0  0  0  0  0  0
   12.4914   -8.2603    0.0000 C    0  0  0  0  0  0  0  0  0  0  0  0
   13.1564   -9.4121    0.0000 C    0  0  0  0  0  0  0  0  0  0  0  0
   13.1564   -7.1085    0.0000 N    0  0  0  0  0  0  0  0  0  0  0  0
   14.4864   -7.1085    0.0000 O    0  0  0  0  0  0  0  0  0  0  0  0
   15.1514   -5.9567    0.0000 Rh   0  0  0  0  0  0  0  0  0  0  0  0
   14.4864   -4.8049    0.0000 C    0  0  0  0  0  0  0  0  0  0  0  0
   16.4814   -5.9567    0.0000 S    0  0  0  0  0  0  0  0  0  0  0  0
   17.1464   -4.8049    0.0000 C    0  0  0  0  0  0  0  0  0  0  0  0
   17.1464   -7.1085    0.0000 C    0  0  0  0  0  0  0  0  0  0  0  0
  1  2  1  0  0  0  0
  2  3  2  0  0  0  0
  3  4  1  0  0  0  0
  3  5  1  0  0  0  0
  5  6  1  0  0  0  0
  5  7  2  0  0  0  0
  7  8  1  0  0  0  0
  8  9  1  0  0  0  0
  9 10  1  0  0  0  0
  9 11  1  0  0  0  0
 11 12  1  0  0  0  0
 11 13  1  0  0  0  0
M  END
> <NMREDATA_VERSION>
1.1

> <NMREDATA_LEVEL>
0

> <NMREDATA_SOLVENT>
DCCl3

> <NMREDATA_TEMPERATURE>
298

> <NMREDATA_FORMULA>
C7H17N2O2RhS

> <NMREDATA_SMILES>
O/N=C(/C(=N/O[Rh](S(C)C)C)/C)\C

> <NMREDATA_ASSIGNMENT>
Rh9, 2214.00, 9

> <NMREDATA_1D_103Rh>
2214.00, L=Rh9

$$$$

  ACD/LABS03242411422D

 38 40  0  0  0  0  0  0  0  0  1 V2000
   20.5832   -8.0937    0.0000 C    0  0  0  0  0  0  0  0  0  0  0  0
   21.2472   -6.9431    0.0000 C    0  0  0  0  0  0  0  0  0  0  0  0
   19.2556   -8.0937    0.0000 C    0  0  0  0  0  0  0  0  0  0  0  0
   20.5832   -5.7924    0.0000 C    0  0  0  0  0  0  0  0  0  0  0  0
   18.5919   -6.9431    0.0000 C    0  0  0  0  0  0  0  0  0  0  0  0
   19.2556   -5.7924    0.0000 C    0  0  0  0  0  0  0  0  0  0  0  0
   11.7771  -12.4390    0.0000 O    0  0  0  0  0  0  0  0  0  0  0  0
   12.2287  -11.1911    0.0000 N    0  0  0  0  0  0  0  0  0  0  0  0
   13.5384  -10.9607    0.0000 C    0  0  0  0  0  0  0  0  0  0  0  0
   14.3882  -11.9787    0.0000 C    0  0  0  0  0  0  0  0  0  0  0  0
   13.9988   -9.7219    0.0000 C    0  0  0  0  0  0  0  0  0  0  0  0
   13.1403   -8.6952    0.0000 C    0  0  0  0  0  0  0  0  0  0  0  0
   15.2997   -9.4916    0.0000 N    0  0  0  0  0  0  0  0  0  0  0  0
   15.7601   -8.2528    0.0000 O    0  0  0  0  0  0  0  0  0  0  0  0
   19.4325  -14.4921    0.0000 O    0  0  0  0  0  0  0  0  0  0  0  0
   18.4062  -13.6427    0.0000 N    0  0  0  0  0  0  0  0  0  0  0  0
   18.6362  -12.3326    0.0000 C    0  0  0  0  0  0  0  0  0  0  0  0
   19.8841  -11.8726    0.0000 C    0  0  0  0  0  0  0  0  0  0  0  0
   17.6182  -11.4832    0.0000 C    0  0  0  0  0  0  0  0  0  0  0  0
   16.3795  -11.9344    0.0000 C    0  0  0  0  0  0  0  0  0  0  0  0
   17.8486  -10.1731    0.0000 N    0  0  0  0  0  0  0  0  0  0  0  0
   16.8307   -9.3234    0.0000 O    0  0  0  0  0  0  0  0  0  0  0  0
   17.0606   -8.0228    0.0000 Rh   0  0  0  0  0  0  0  0  0  0  0  0
   18.3619   -8.2528    0.0000 C    0  0  0  0  0  0  0  0  0  0  0  0
   18.8219   -9.4916    0.0000 Cl   0  0  0  0  0  0  0  0  0  0  0  0
   17.2819   -6.7131    0.0000 P    0  0  0  0  0  0  0  0  0  0  0  0
   17.5122   -5.4118    0.0000 C    0  0  0  0  0  0  0  0  0  0  0  0
   16.5034   -4.5533    0.0000 C    0  0  0  0  0  0  0  0  0  0  0  0
   18.7601   -4.9518    0.0000 C    0  0  0  0  0  0  0  0  0  0  0  0
   16.7243   -3.2523    0.0000 C    0  0  0  0  0  0  0  0  0  0  0  0
   18.9901   -3.6417    0.0000 C    0  0  0  0  0  0  0  0  0  0  0  0
   17.9722   -2.7923    0.0000 C    0  0  0  0  0  0  0  0  0  0  0  0
   15.9900   -6.4919    0.0000 C    0  0  0  0  0  0  0  0  0  0  0  0
   15.1315   -7.5095    0.0000 C    0  0  0  0  0  0  0  0  0  0  0  0
   15.5301   -5.2436    0.0000 C    0  0  0  0  0  0  0  0  0  0  0  0
   13.8306   -7.2795    0.0000 C    0  0  0  0  0  0  0  0  0  0  0  0
   14.2200   -5.0136    0.0000 C    0  0  0  0  0  0  0  0  0  0  0  0
   13.3702   -6.0315    0.0000 C    0  0  0  0  0  0  0  0  0  0  0  0
  1  2  1  0  0  0  0
  1  3  2  0  0  0  0
  2  4  2  0  0  0  0
  3  5  1  0  0  0  0
  4  6  1  0  0  0  0
  5  6  2  0  0  0  0
  7  8  1  0  0  0  0
  8  9  2  0  0  0  0
  9 10  1  0  0  0  0
  9 11  1  0  0  0  0
 11 12  1  0  0  0  0
 11 13  2  0  0  0  0
 13 14  1  0  0  0  0
 15 16  1  0  0  0  0
 16 17  2  0  0  0  0
 17 18  1  0  0  0  0
 17 19  1  0  0  0  0
 19 20  1  0  0  0  0
 19 21  2  0  0  0  0
 21 22  1  0  0  0  0
 22 23  1  0  0  0  0
 23 24  1  0  0  0  0
 14 23  1  0  0  0  0
 24 25  1  0  0  0  0
 23 26  1  0  0  0  0
 27 28  1  0  0  0  0
 27 29  2  0  0  0  0
 28 30  2  0  0  0  0
 29 31  1  0  0  0  0
 30 32  1  0  0  0  0
 31 32  2  0  0  0  0
 26 27  1  0  0  0  0
 33 34  1  0  0  0  0
 33 35  2  0  0  0  0
 34 36  2  0  0  0  0
 35 37  1  0  0  0  0
 36 38  1  0  0  0  0
 37 38  2  0  0  0  0
 26 33  1  0  0  0  0
  5 26  1  0  0  0  0
M  END
> <NMREDATA_VERSION>
1.1

> <NMREDATA_LEVEL>
0

> <NMREDATA_SOLVENT>
DCCl3

> <NMREDATA_TEMPERATURE>
298

> <NMREDATA_FORMULA>
C27H32ClN4O4PRh

> <NMREDATA_SMILES>
ClC[Rh](P(c1ccccc1)(c1ccccc1)c1ccccc1)(O/N=C(/C(=N/O)/C)\C)O/N=C(/C(=N/O)/C)\C

> <NMREDATA_ASSIGNMENT>
Rh23, 2082.00, 23

> <NMREDATA_1D_103Rh>
2082.00, L=Rh23

$$$$

  ACD/LABS03242411432D

 23 22  0  0  0  0  0  0  0  0  1 V2000
   18.5919   -6.9431    0.0000 C    0  0  0  0  0  0  0  0  0  0  0  0
   11.7771  -12.4390    0.0000 O    0  0  0  0  0  0  0  0  0  0  0  0
   12.2287  -11.1911    0.0000 N    0  0  0  0  0  0  0  0  0  0  0  0
   13.5384  -10.9607    0.0000 C    0  0  0  0  0  0  0  0  0  0  0  0
   14.3882  -11.9787    0.0000 C    0  0  0  0  0  0  0  0  0  0  0  0
   13.9988   -9.7219    0.0000 C    0  0  0  0  0  0  0  0  0  0  0  0
   13.1403   -8.6952    0.0000 C    0  0  0  0  0  0  0  0  0  0  0  0
   15.2997   -9.4916    0.0000 N    0  0  0  0  0  0  0  0  0  0  0  0
   15.7601   -8.2528    0.0000 O    0  0  0  0  0  0  0  0  0  0  0  0
   19.4325  -14.4921    0.0000 O    0  0  0  0  0  0  0  0  0  0  0  0
   18.4062  -13.6427    0.0000 N    0  0  0  0  0  0  0  0  0  0  0  0
   18.6362  -12.3326    0.0000 C    0  0  0  0  0  0  0  0  0  0  0  0
   19.8841  -11.8726    0.0000 C    0  0  0  0  0  0  0  0  0  0  0  0
   17.6182  -11.4832    0.0000 C    0  0  0  0  0  0  0  0  0  0  0  0
   16.3795  -11.9344    0.0000 C    0  0  0  0  0  0  0  0  0  0  0  0
   17.8486  -10.1731    0.0000 N    0  0  0  0  0  0  0  0  0  0  0  0
   16.8307   -9.3234    0.0000 O    0  0  0  0  0  0  0  0  0  0  0  0
   17.0606   -8.0228    0.0000 Rh   0  0  0  0  0  0  0  0  0  0  0  0
   18.3619   -8.2528    0.0000 C    0  0  0  0  0  0  0  0  0  0  0  0
   18.8219   -9.4916    0.0000 Cl   0  0  0  0  0  0  0  0  0  0  0  0
   17.2819   -6.7131    0.0000 P    0  0  0  0  0  0  0  0  0  0  0  0
   17.5122   -5.4118    0.0000 C    0  0  0  0  0  0  0  0  0  0  0  0
   15.9900   -6.4919    0.0000 C    0  0  0  0  0  0  0  0  0  0  0  0
  2  3  1  0  0  0  0
  3  4  2  0  0  0  0
  4  5  1  0  0  0  0
  4  6  1  0  0  0  0
  6  7  1  0  0  0  0
  6  8  2  0  0  0  0
  8  9  1  0  0  0  0
 10 11  1  0  0  0  0
 11 12  2  0  0  0  0
 12 13  1  0  0  0  0
 12 14  1  0  0  0  0
 14 15  1  0  0  0  0
 14 16  2  0  0  0  0
 16 17  1  0  0  0  0
 17 18  1  0  0  0  0
 18 19  1  0  0  0  0
  9 18  1  0  0  0  0
 19 20  1  0  0  0  0
 18 21  1  0  0  0  0
 21 22  1  0  0  0  0
 21 23  1  0  0  0  0
  1 21  1  0  0  0  0
M  END
> <NMREDATA_VERSION>
1.1

> <NMREDATA_LEVEL>
0

> <NMREDATA_SOLVENT>
DCCl3

> <NMREDATA_TEMPERATURE>
298

> <NMREDATA_FORMULA>
C12H26ClN4O4PRh

> <NMREDATA_SMILES>
ClC[Rh](P(C)(C)C)(O/N=C(/C(=N/O)/C)\C)O/N=C(/C(=N/O)/C)\C

> <NMREDATA_ASSIGNMENT>
Rh18, 1948.00, 18

> <NMREDATA_1D_103Rh>
1948.00, L=Rh18

$$$$

  ACD/LABS03242411432D

 38 40  0  0  0  0  0  0  0  0  1 V2000
   20.5832   -8.0937    0.0000 C    0  0  0  0  0  0  0  0  0  0  0  0
   21.2472   -6.9431    0.0000 C    0  0  0  0  0  0  0  0  0  0  0  0
   19.2556   -8.0937    0.0000 C    0  0  0  0  0  0  0  0  0  0  0  0
   20.5832   -5.7924    0.0000 C    0  0  0  0  0  0  0  0  0  0  0  0
   18.5919   -6.9431    0.0000 C    0  0  0  0  0  0  0  0  0  0  0  0
   19.2556   -5.7924    0.0000 C    0  0  0  0  0  0  0  0  0  0  0  0
   11.7771  -12.4390    0.0000 O    0  0  0  0  0  0  0  0  0  0  0  0
   12.2287  -11.1911    0.0000 N    0  0  0  0  0  0  0  0  0  0  0  0
   13.5384  -10.9607    0.0000 C    0  0  0  0  0  0  0  0  0  0  0  0
   14.3882  -11.9787    0.0000 C    0  0  0  0  0  0  0  0  0  0  0  0
   13.9988   -9.7219    0.0000 C    0  0  0  0  0  0  0  0  0  0  0  0
   13.1403   -8.6952    0.0000 C    0  0  0  0  0  0  0  0  0  0  0  0
   15.2997   -9.4916    0.0000 N    0  0  0  0  0  0  0  0  0  0  0  0
   15.7601   -8.2528    0.0000 O    0  0  0  0  0  0  0  0  0  0  0  0
   19.4325  -14.4921    0.0000 O    0  0  0  0  0  0  0  0  0  0  0  0
   18.4062  -13.6427    0.0000 N    0  0  0  0  0  0  0  0  0  0  0  0
   18.6362  -12.3326    0.0000 C    0  0  0  0  0  0  0  0  0  0  0  0
   19.8841  -11.8726    0.0000 C    0  0  0  0  0  0  0  0  0  0  0  0
   17.6182  -11.4832    0.0000 C    0  0  0  0  0  0  0  0  0  0  0  0
   16.3795  -11.9344    0.0000 C    0  0  0  0  0  0  0  0  0  0  0  0
   17.8486  -10.1731    0.0000 N    0  0  0  0  0  0  0  0  0  0  0  0
   16.8307   -9.3234    0.0000 O    0  0  0  0  0  0  0  0  0  0  0  0
   17.0606   -8.0228    0.0000 Rh   0  0  0  0  0  0  0  0  0  0  0  0
   18.3619   -8.2528    0.0000 C    0  0  0  0  0  0  0  0  0  0  0  0
   18.8219   -9.4916    0.0000 Br   0  0  0  0  0  0  0  0  0  0  0  0
   17.2819   -6.7131    0.0000 P    0  0  0  0  0  0  0  0  0  0  0  0
   17.5122   -5.4118    0.0000 C    0  0  0  0  0  0  0  0  0  0  0  0
   16.5034   -4.5533    0.0000 C    0  0  0  0  0  0  0  0  0  0  0  0
   18.7601   -4.9518    0.0000 C    0  0  0  0  0  0  0  0  0  0  0  0
   16.7243   -3.2523    0.0000 C    0  0  0  0  0  0  0  0  0  0  0  0
   18.9901   -3.6417    0.0000 C    0  0  0  0  0  0  0  0  0  0  0  0
   17.9722   -2.7923    0.0000 C    0  0  0  0  0  0  0  0  0  0  0  0
   15.9900   -6.4919    0.0000 C    0  0  0  0  0  0  0  0  0  0  0  0
   15.1315   -7.5095    0.0000 C    0  0  0  0  0  0  0  0  0  0  0  0
   15.5301   -5.2436    0.0000 C    0  0  0  0  0  0  0  0  0  0  0  0
   13.8306   -7.2795    0.0000 C    0  0  0  0  0  0  0  0  0  0  0  0
   14.2200   -5.0136    0.0000 C    0  0  0  0  0  0  0  0  0  0  0  0
   13.3702   -6.0315    0.0000 C    0  0  0  0  0  0  0  0  0  0  0  0
  1  2  1  0  0  0  0
  1  3  2  0  0  0  0
  2  4  2  0  0  0  0
  3  5  1  0  0  0  0
  4  6  1  0  0  0  0
  5  6  2  0  0  0  0
  7  8  1  0  0  0  0
  8  9  2  0  0  0  0
  9 10  1  0  0  0  0
  9 11  1  0  0  0  0
 11 12  1  0  0  0  0
 11 13  2  0  0  0  0
 13 14  1  0  0  0  0
 15 16  1  0  0  0  0
 16 17  2  0  0  0  0
 17 18  1  0  0  0  0
 17 19  1  0  0  0  0
 19 20  1  0  0  0  0
 19 21  2  0  0  0  0
 21 22  1  0  0  0  0
 22 23  1  0  0  0  0
 23 24  1  0  0  0  0
 14 23  1  0  0  0  0
 24 25  1  0  0  0  0
 23 26  1  0  0  0  0
 27 28  1  0  0  0  0
 27 29  2  0  0  0  0
 28 30  2  0  0  0  0
 29 31  1  0  0  0  0
 30 32  1  0  0  0  0
 31 32  2  0  0  0  0
 26 27  1  0  0  0  0
 33 34  1  0  0  0  0
 33 35  2  0  0  0  0
 34 36  2  0  0  0  0
 35 37  1  0  0  0  0
 36 38  1  0  0  0  0
 37 38  2  0  0  0  0
 26 33  1  0  0  0  0
  5 26  1  0  0  0  0
M  END
> <NMREDATA_VERSION>
1.1

> <NMREDATA_LEVEL>
0

> <NMREDATA_SOLVENT>
DCCl3

> <NMREDATA_TEMPERATURE>
298

> <NMREDATA_FORMULA>
C27H32BrN4O4PRh

> <NMREDATA_SMILES>
BrC[Rh](P(c1ccccc1)(c1ccccc1)c1ccccc1)(O/N=C(/C(=N/O)/C)\C)O/N=C(/C(=N/O)/C)\C

> <NMREDATA_ASSIGNMENT>
Rh23, 2075.00, 23

> <NMREDATA_1D_103Rh>
2075.00, L=Rh23

$$$$

  ACD/LABS03242411442D

 39 41  0  0  0  0  0  0  0  0  1 V2000
   20.5832   -8.0937    0.0000 C    0  0  0  0  0  0  0  0  0  0  0  0
   21.2472   -6.9431    0.0000 C    0  0  0  0  0  0  0  0  0  0  0  0
   19.2556   -8.0937    0.0000 C    0  0  0  0  0  0  0  0  0  0  0  0
   20.5832   -5.7924    0.0000 C    0  0  0  0  0  0  0  0  0  0  0  0
   18.5919   -6.9431    0.0000 C    0  0  0  0  0  0  0  0  0  0  0  0
   19.2556   -5.7924    0.0000 C    0  0  0  0  0  0  0  0  0  0  0  0
   11.7771  -12.4390    0.0000 O    0  0  0  0  0  0  0  0  0  0  0  0
   12.2287  -11.1911    0.0000 N    0  0  0  0  0  0  0  0  0  0  0  0
   13.5384  -10.9607    0.0000 C    0  0  0  0  0  0  0  0  0  0  0  0
   14.3882  -11.9787    0.0000 C    0  0  0  0  0  0  0  0  0  0  0  0
   13.9988   -9.7219    0.0000 C    0  0  0  0  0  0  0  0  0  0  0  0
   13.1403   -8.6952    0.0000 C    0  0  0  0  0  0  0  0  0  0  0  0
   15.2997   -9.4916    0.0000 N    0  0  0  0  0  0  0  0  0  0  0  0
   15.7601   -8.2528    0.0000 O    0  0  0  0  0  0  0  0  0  0  0  0
   19.4325  -14.4921    0.0000 O    0  0  0  0  0  0  0  0  0  0  0  0
   18.4062  -13.6427    0.0000 N    0  0  0  0  0  0  0  0  0  0  0  0
   18.6362  -12.3326    0.0000 C    0  0  0  0  0  0  0  0  0  0  0  0
   19.8841  -11.8726    0.0000 C    0  0  0  0  0  0  0  0  0  0  0  0
   17.6182  -11.4832    0.0000 C    0  0  0  0  0  0  0  0  0  0  0  0
   16.3795  -11.9344    0.0000 C    0  0  0  0  0  0  0  0  0  0  0  0
   17.8486  -10.1731    0.0000 N    0  0  0  0  0  0  0  0  0  0  0  0
   16.8307   -9.3234    0.0000 O    0  0  0  0  0  0  0  0  0  0  0  0
   17.0606   -8.0228    0.0000 Rh   0  0  0  0  0  0  0  0  0  0  0  0
   18.3619   -8.2528    0.0000 C    0  0  0  0  0  0  0  0  0  0  0  0
   18.8219   -9.4916    0.0000 O    0  0  0  0  0  0  0  0  0  0  0  0
   17.2819   -6.7131    0.0000 P    0  0  0  0  0  0  0  0  0  0  0  0
   17.5122   -5.4118    0.0000 C    0  0  0  0  0  0  0  0  0  0  0  0
   16.5034   -4.5533    0.0000 C    0  0  0  0  0  0  0  0  0  0  0  0
   18.7601   -4.9518    0.0000 C    0  0  0  0  0  0  0  0  0  0  0  0
   16.7243   -3.2523    0.0000 C    0  0  0  0  0  0  0  0  0  0  0  0
   18.9901   -3.6417    0.0000 C    0  0  0  0  0  0  0  0  0  0  0  0
   17.9722   -2.7923    0.0000 C    0  0  0  0  0  0  0  0  0  0  0  0
   15.9900   -6.4919    0.0000 C    0  0  0  0  0  0  0  0  0  0  0  0
   15.1315   -7.5095    0.0000 C    0  0  0  0  0  0  0  0  0  0  0  0
   15.5301   -5.2436    0.0000 C    0  0  0  0  0  0  0  0  0  0  0  0
   13.8306   -7.2795    0.0000 C    0  0  0  0  0  0  0  0  0  0  0  0
   14.2200   -5.0136    0.0000 C    0  0  0  0  0  0  0  0  0  0  0  0
   13.3702   -6.0315    0.0000 C    0  0  0  0  0  0  0  0  0  0  0  0
   20.1263   -9.2299    0.0000 C    0  0  0  0  0  0  0  0  0  0  0  0
  1  2  1  0  0  0  0
  1  3  2  0  0  0  0
  2  4  2  0  0  0  0
  3  5  1  0  0  0  0
  4  6  1  0  0  0  0
  5  6  2  0  0  0  0
  7  8  1  0  0  0  0
  8  9  2  0  0  0  0
  9 10  1  0  0  0  0
  9 11  1  0  0  0  0
 11 12  1  0  0  0  0
 11 13  2  0  0  0  0
 13 14  1  0  0  0  0
 15 16  1  0  0  0  0
 16 17  2  0  0  0  0
 17 18  1  0  0  0  0
 17 19  1  0  0  0  0
 19 20  1  0  0  0  0
 19 21  2  0  0  0  0
 21 22  1  0  0  0  0
 22 23  1  0  0  0  0
 23 24  1  0  0  0  0
 14 23  1  0  0  0  0
 24 25  1  0  0  0  0
 23 26  1  0  0  0  0
 27 28  1  0  0  0  0
 27 29  2  0  0  0  0
 28 30  2  0  0  0  0
 29 31  1  0  0  0  0
 30 32  1  0  0  0  0
 31 32  2  0  0  0  0
 26 27  1  0  0  0  0
 33 34  1  0  0  0  0
 33 35  2  0  0  0  0
 34 36  2  0  0  0  0
 35 37  1  0  0  0  0
 36 38  1  0  0  0  0
 37 38  2  0  0  0  0
 26 33  1  0  0  0  0
  5 26  1  0  0  0  0
 25 39  1  0  0  0  0
M  END
> <NMREDATA_VERSION>
1.1

> <NMREDATA_LEVEL>
0

> <NMREDATA_SOLVENT>
DCCl3

> <NMREDATA_TEMPERATURE>
298

> <NMREDATA_FORMULA>
C28H35N4O5PRh

> <NMREDATA_SMILES>
COC[Rh](P(c1ccccc1)(c1ccccc1)c1ccccc1)(O/N=C(/C(=N/O)/C)\C)O/N=C(/C(=N/O)/C)\C

> <NMREDATA_ASSIGNMENT>
Rh23, 2067.00, 23

> <NMREDATA_1D_103Rh>
2067.00, L=Rh23

$$$$

  ACD/LABS03242411452D

 33 35  0  0  0  0  0  0  0  0  1 V2000
   20.0140   -3.6534    0.0000 C    0  0  0  0  0  0  0  0  0  0  0  0
   21.2776   -4.1682    0.0000 C    0  0  0  0  0  0  0  0  0  0  0  0
   18.9052   -4.2936    0.0000 C    0  0  0  0  0  0  0  0  0  0  0  0
   21.2742   -5.5535    0.0000 C    0  0  0  0  0  0  0  0  0  0  0  0
   18.8269   -5.6687    0.0000 C    0  0  0  0  0  0  0  0  0  0  0  0
   20.0779   -6.1288    0.0000 C    0  0  0  0  0  0  0  0  0  0  0  0
   11.7467  -11.0911    0.0000 O    0  0  0  0  0  0  0  0  0  0  0  0
   12.9658  -10.4830    0.0000 N    0  0  0  0  0  0  0  0  0  0  0  0
   14.0988  -11.2405    0.0000 C    0  0  0  0  0  0  0  0  0  0  0  0
   13.9607  -12.5991    0.0000 C    0  0  0  0  0  0  0  0  0  0  0  0
   15.3554  -10.7002    0.0000 C    0  0  0  0  0  0  0  0  0  0  0  0
   16.4206  -11.5471    0.0000 C    0  0  0  0  0  0  0  0  0  0  0  0
   15.4412   -9.3883    0.0000 N    0  0  0  0  0  0  0  0  0  0  0  0
   16.2754   -8.4522    0.0000 O    0  0  0  0  0  0  0  0  0  0  0  0
   16.3929   -7.1274    0.0000 Rh   0  0  0  0  0  0  0  0  0  0  0  0
   15.1638   -6.6696    0.0000 C    0  0  0  0  0  0  0  0  0  0  0  0
   13.8826   -6.9649    0.0000 Si   0  0  0  0  0  0  0  0  0  0  0  0
   17.6163   -6.3975    0.0000 P    0  0  0  0  0  0  0  0  0  0  0  0
   18.3745   -7.5911    0.0000 C    0  0  0  0  0  0  0  0  0  0  0  0
   19.7052   -7.7665    0.0000 C    0  0  0  0  0  0  0  0  0  0  0  0
   17.8864   -8.8370    0.0000 C    0  0  0  0  0  0  0  0  0  0  0  0
   20.4501   -8.8650    0.0000 C    0  0  0  0  0  0  0  0  0  0  0  0
   18.4672  -10.0279    0.0000 C    0  0  0  0  0  0  0  0  0  0  0  0
   19.8448  -10.1024    0.0000 C    0  0  0  0  0  0  0  0  0  0  0  0
   16.9125   -5.1717    0.0000 C    0  0  0  0  0  0  0  0  0  0  0  0
   17.3747   -3.9258    0.0000 C    0  0  0  0  0  0  0  0  0  0  0  0
   15.5821   -4.9859    0.0000 C    0  0  0  0  0  0  0  0  0  0  0  0
   16.8450   -2.7172    0.0000 C    0  0  0  0  0  0  0  0  0  0  0  0
   14.8607   -3.8683    0.0000 C    0  0  0  0  0  0  0  0  0  0  0  0
   15.4597   -2.6322    0.0000 C    0  0  0  0  0  0  0  0  0  0  0  0
   12.4889   -7.1399    0.0000 C    0  0  0  0  0  0  0  0  0  0  0  0
   13.4380   -5.6522    0.0000 C    0  0  0  0  0  0  0  0  0  0  0  0
   13.8165   -8.3189    0.0000 C    0  0  0  0  0  0  0  0  0  0  0  0
  1  2  1  0  0  0  0
  1  3  2  0  0  0  0
  2  4  2  0  0  0  0
  3  5  1  0  0  0  0
  4  6  1  0  0  0  0
  5  6  2  0  0  0  0
  7  8  1  0  0  0  0
  8  9  2  0  0  0  0
  9 10  1  0  0  0  0
  9 11  1  0  0  0  0
 11 12  1  0  0  0  0
 11 13  2  0  0  0  0
 13 14  1  0  0  0  0
 15 16  1  0  0  0  0
 14 15  1  0  0  0  0
 16 17  1  0  0  0  0
 15 18  1  0  0  0  0
 19 20  1  0  0  0  0
 19 21  2  0  0  0  0
 20 22  2  0  0  0  0
 21 23  1  0  0  0  0
 22 24  1  0  0  0  0
 23 24  2  0  0  0  0
 18 19  1  0  0  0  0
 25 26  1  0  0  0  0
 25 27  2  0  0  0  0
 26 28  2  0  0  0  0
 27 29  1  0  0  0  0
 28 30  1  0  0  0  0
 29 30  2  0  0  0  0
 18 25  1  0  0  0  0
  5 18  1  0  0  0  0
 17 31  1  0  0  0  0
 17 32  1  0  0  0  0
 17 33  1  0  0  0  0
M  END
> <NMREDATA_VERSION>
1.1

> <NMREDATA_LEVEL>
0

> <NMREDATA_SOLVENT>
DCCl3

> <NMREDATA_TEMPERATURE>
298

> <NMREDATA_FORMULA>
C26H34N2O2PRhSi

> <NMREDATA_SMILES>
O/N=C(/C(=N/O[Rh](P(c1ccccc1)(c1ccccc1)c1ccccc1)C[Si](C)(C)C)/C)\C

> <NMREDATA_ASSIGNMENT>
Rh15, 2169.00, 15

> <NMREDATA_1D_103Rh>
2169.00, L=Rh15

$$$$

  ACD/LABS03242411462D

 25 25  0  0  0  0  0  0  0  0  1 V2000
   11.7771  -12.4390    0.0000 O    0  0  0  0  0  0  0  0  0  0  0  0
   12.2287  -11.1911    0.0000 N    0  0  0  0  0  0  0  0  0  0  0  0
   13.5384  -10.9607    0.0000 C    0  0  0  0  0  0  0  0  0  0  0  0
   14.3882  -11.9787    0.0000 C    0  0  0  0  0  0  0  0  0  0  0  0
   13.9988   -9.7219    0.0000 C    0  0  0  0  0  0  0  0  0  0  0  0
   13.1403   -8.6952    0.0000 C    0  0  0  0  0  0  0  0  0  0  0  0
   15.2997   -9.4916    0.0000 N    0  0  0  0  0  0  0  0  0  0  0  0
   15.7601   -8.2528    0.0000 O    0  0  0  0  0  0  0  0  0  0  0  0
   19.4325  -14.4921    0.0000 O    0  0  0  0  0  0  0  0  0  0  0  0
   18.4062  -13.6427    0.0000 N    0  0  0  0  0  0  0  0  0  0  0  0
   18.6362  -12.3326    0.0000 C    0  0  0  0  0  0  0  0  0  0  0  0
   19.8841  -11.8726    0.0000 C    0  0  0  0  0  0  0  0  0  0  0  0
   17.6182  -11.4832    0.0000 C    0  0  0  0  0  0  0  0  0  0  0  0
   16.3795  -11.9344    0.0000 C    0  0  0  0  0  0  0  0  0  0  0  0
   17.8486  -10.1731    0.0000 N    0  0  0  0  0  0  0  0  0  0  0  0
   16.8307   -9.3234    0.0000 O    0  0  0  0  0  0  0  0  0  0  0  0
   17.0606   -8.0228    0.0000 Rh   0  0  0  0  0  0  0  0  0  0  0  0
   18.3619   -8.2528    0.0000 C    0  0  0  0  0  0  0  0  0  0  0  0
   19.4533   -9.6786    0.0000 Cl   0  0  0  0  0  0  0  0  0  0  0  0
   17.0606   -6.6968    0.0000 N    0  0  0  0  0  0  0  0  0  0  0  0
   15.9122   -6.0338    0.0000 C    0  0  0  0  0  0  0  0  0  0  0  0
   18.2090   -6.0337    0.0000 C    0  0  0  0  0  0  0  0  0  0  0  0
   15.9122   -4.7078    0.0000 C    0  0  0  0  0  0  0  0  0  0  0  0
   18.2089   -4.7077    0.0000 C    0  0  0  0  0  0  0  0  0  0  0  0
   17.0605   -4.0448    0.0000 C    0  0  0  0  0  0  0  0  0  0  0  0
  1  2  1  0  0  0  0
  2  3  2  0  0  0  0
  3  4  1  0  0  0  0
  3  5  1  0  0  0  0
  5  6  1  0  0  0  0
  5  7  2  0  0  0  0
  7  8  1  0  0  0  0
  9 10  1  0  0  0  0
 10 11  2  0  0  0  0
 11 12  1  0  0  0  0
 11 13  1  0  0  0  0
 13 14  1  0  0  0  0
 13 15  2  0  0  0  0
 15 16  1  0  0  0  0
 16 17  1  0  0  0  0
 17 18  1  0  0  0  0
  8 17  1  0  0  0  0
 18 19  1  0  0  0  0
 20 21  1  0  0  0  0
 20 22  2  0  0  0  0
 21 23  2  0  0  0  0
 22 24  1  0  0  0  0
 23 25  1  0  0  0  0
 24 25  2  0  0  0  0
 17 20  1  0  0  0  0
M  END
> <NMREDATA_VERSION>
1.1

> <NMREDATA_LEVEL>
0

> <NMREDATA_SOLVENT>
DCCl3

> <NMREDATA_TEMPERATURE>
298

> <NMREDATA_FORMULA>
C14H22ClN5O4Rh

> <NMREDATA_SMILES>
ClC[Rh](N1=CC=CC=C1)(O/N=C(/C(=N/O)/C)\C)O/N=C(/C(=N/O)/C)\C

> <NMREDATA_ASSIGNMENT>
Rh17, 2621.00, 17

> <NMREDATA_1D_103Rh>
2621.00, L=Rh17

$$$$

  ACD/LABS03242412422D

 21 21  0  0  0  0  0  0  0  0  1 V2000
   13.8817   -9.0304    0.0000 Rh   0  0  0  0  0  0  0  0  0  0  0  0
   12.0082   -7.9487    0.0000 Cl   0  0  0  0  0  0  0  0  0  0  0  0
   15.7551  -10.1120    0.0000 Cl   0  0  0  0  0  0  0  0  0  0  0  0
   14.9633   -7.1569    0.0000 C    0  0  0  0  0  0  0  0  0  0  0  0
   13.8817   -5.2835    0.0000 Cl   0  0  0  0  0  0  0  0  0  0  0  0
   12.8000  -10.9038    0.0000 N    0  0  0  0  0  0  0  0  0  0  0  0
   13.8817  -12.7772    0.0000 C    0  0  0  0  0  0  0  0  0  0  0  0
   10.6368  -10.9038    0.0000 C    0  0  0  0  0  0  0  0  0  0  0  0
   12.8000  -14.6507    0.0000 C    0  0  0  0  0  0  0  0  0  0  0  0
    9.5551  -12.7772    0.0000 C    0  0  0  0  0  0  0  0  0  0  0  0
   10.6368  -14.6507    0.0000 C    0  0  0  0  0  0  0  0  0  0  0  0
   16.0449  -12.7772    0.0000 C    0  0  0  0  0  0  0  0  0  0  0  0
    9.5551   -9.0304    0.0000 C    0  0  0  0  0  0  0  0  0  0  0  0
   17.1265  -10.9038    0.0000 N    0  0  0  0  0  0  0  0  0  0  0  0
   10.6368   -7.1569    0.0000 N    0  0  0  0  0  0  0  0  0  0  0  0
   19.2898  -10.9038    0.0000 C    0  0  0  0  0  0  0  0  0  0  0  0
   20.3714   -9.0304    0.0000 C    0  0  0  0  0  0  0  0  0  0  0  0
   20.3714  -12.7772    0.0000 C    0  0  0  0  0  0  0  0  0  0  0  0
    9.5551   -5.2835    0.0000 C    0  0  0  0  0  0  0  0  0  0  0  0
    7.3919   -5.2835    0.0000 C    0  0  0  0  0  0  0  0  0  0  0  0
   10.6368   -3.4101    0.0000 C    0  0  0  0  0  0  0  0  0  0  0  0
  1  2  1  0  0  0  0
  1  3  1  0  0  0  0
  1  4  1  0  0  0  0
  4  5  1  0  0  0  0
  6  7  1  0  0  0  0
  6  8  2  0  0  0  0
  7  9  2  0  0  0  0
  8 10  1  0  0  0  0
  9 11  1  0  0  0  0
 10 11  2  0  0  0  0
  1  6  1  0  0  0  0
  7 12  1  0  0  0  0
  8 13  1  0  0  0  0
 12 14  2  0  0  0  0
 13 15  2  0  0  0  0
 16 17  1  0  0  0  0
 16 18  1  0  0  0  0
 14 16  1  0  0  0  0
 19 20  1  0  0  0  0
 19 21  1  0  0  0  0
 15 19  1  0  0  0  0
M  END
> <NMREDATA_VERSION>
1.1

> <NMREDATA_LEVEL>
0

> <NMREDATA_SOLVENT>
CD2Cl2

> <NMREDATA_TEMPERATURE>
298

> <NMREDATA_FORMULA>
C14H22Cl3N3Rh

> <NMREDATA_SMILES>
ClC[Rh](N1=C(C=CC=C1/C=N/C(C)C)/C=N/C(C)C)(Cl)Cl

> <NMREDATA_ASSIGNMENT>
Rh1, 3570.00, 1

> <NMREDATA_1D_103Rh>
3570.00, L=Rh1

$$$$

  ACD/LABS03242412422D

 27 29  0  0  0  0  0  0  0  0  1 V2000
   13.8817   -9.0304    0.0000 Rh   0  0  0  0  0  0  0  0  0  0  0  0
   12.0082   -7.9487    0.0000 Cl   0  0  0  0  0  0  0  0  0  0  0  0
   15.7551  -10.1120    0.0000 Cl   0  0  0  0  0  0  0  0  0  0  0  0
   14.9633   -7.1569    0.0000 C    0  0  0  0  0  0  0  0  0  0  0  0
   13.8817   -5.2835    0.0000 Cl   0  0  0  0  0  0  0  0  0  0  0  0
   12.8000  -10.9038    0.0000 N    0  0  0  0  0  0  0  0  0  0  0  0
   13.8817  -12.7772    0.0000 C    0  0  0  0  0  0  0  0  0  0  0  0
   10.6368  -10.9038    0.0000 C    0  0  0  0  0  0  0  0  0  0  0  0
   12.8000  -14.6507    0.0000 C    0  0  0  0  0  0  0  0  0  0  0  0
    9.5551  -12.7772    0.0000 C    0  0  0  0  0  0  0  0  0  0  0  0
   10.6368  -14.6507    0.0000 C    0  0  0  0  0  0  0  0  0  0  0  0
   16.0449  -12.7772    0.0000 C    0  0  0  0  0  0  0  0  0  0  0  0
    9.5551   -9.0304    0.0000 C    0  0  0  0  0  0  0  0  0  0  0  0
   17.1265  -10.9038    0.0000 N    0  0  0  0  0  0  0  0  0  0  0  0
   10.6368   -7.1569    0.0000 N    0  0  0  0  0  0  0  0  0  0  0  0
   19.2898  -10.9038    0.0000 C    0  0  0  0  0  0  0  0  0  0  0  0
   20.3714   -9.0304    0.0000 C    0  0  0  0  0  0  0  0  0  0  0  0
   20.3715  -12.7773    0.0000 C    0  0  0  0  0  0  0  0  0  0  0  0
   22.5348   -9.0305    0.0000 C    0  0  0  0  0  0  0  0  0  0  0  0
   22.5347  -12.7773    0.0000 C    0  0  0  0  0  0  0  0  0  0  0  0
   23.6164  -10.9039    0.0000 C    0  0  0  0  0  0  0  0  0  0  0  0
    9.5551   -5.2835    0.0000 C    0  0  0  0  0  0  0  0  0  0  0  0
    7.3919   -5.2835    0.0000 C    0  0  0  0  0  0  0  0  0  0  0  0
   10.6368   -3.4099    0.0000 C    0  0  0  0  0  0  0  0  0  0  0  0
    6.3103   -3.4099    0.0000 C    0  0  0  0  0  0  0  0  0  0  0  0
    9.5552   -1.5365    0.0000 C    0  0  0  0  0  0  0  0  0  0  0  0
    7.3920   -1.5365    0.0000 C    0  0  0  0  0  0  0  0  0  0  0  0
  1  2  1  0  0  0  0
  1  3  1  0  0  0  0
  1  4  1  0  0  0  0
  4  5  1  0  0  0  0
  6  7  1  0  0  0  0
  6  8  2  0  0  0  0
  7  9  2  0  0  0  0
  8 10  1  0  0  0  0
  9 11  1  0  0  0  0
 10 11  2  0  0  0  0
  1  6  1  0  0  0  0
  7 12  1  0  0  0  0
  8 13  1  0  0  0  0
 12 14  2  0  0  0  0
 13 15  2  0  0  0  0
 16 17  1  0  0  0  0
 16 18  1  0  0  0  0
 17 19  1  0  0  0  0
 18 20  1  0  0  0  0
 19 21  1  0  0  0  0
 20 21  1  0  0  0  0
 14 16  1  0  0  0  0
 22 23  1  0  0  0  0
 22 24  1  0  0  0  0
 23 25  1  0  0  0  0
 24 26  1  0  0  0  0
 25 27  1  0  0  0  0
 26 27  1  0  0  0  0
 15 22  1  0  0  0  0
M  END
> <NMREDATA_VERSION>
1.1

> <NMREDATA_LEVEL>
0

> <NMREDATA_SOLVENT>
CD2Cl2

> <NMREDATA_TEMPERATURE>
298

> <NMREDATA_FORMULA>
C20H30Cl3N3Rh

> <NMREDATA_SMILES>
ClC[Rh](N1=C(C=CC=C1/C=N/C1CCCCC1)/C=N/C1CCCCC1)(Cl)Cl

> <NMREDATA_ASSIGNMENT>
Rh1, 3569.00, 1

> <NMREDATA_1D_103Rh>
3569.00, L=Rh1

$$$$

  ACD/LABS03242412422D

 23 23  0  0  0  0  0  0  0  0  1 V2000
   13.8817   -9.0304    0.0000 Rh   0  0  0  0  0  0  0  0  0  0  0  0
   12.0082   -7.9487    0.0000 Cl   0  0  0  0  0  0  0  0  0  0  0  0
   15.7551  -10.1120    0.0000 Cl   0  0  0  0  0  0  0  0  0  0  0  0
   14.9633   -7.1569    0.0000 C    0  0  0  0  0  0  0  0  0  0  0  0
   13.8817   -5.2835    0.0000 Cl   0  0  0  0  0  0  0  0  0  0  0  0
   12.8000  -10.9038    0.0000 N    0  0  0  0  0  0  0  0  0  0  0  0
   13.8817  -12.7772    0.0000 C    0  0  0  0  0  0  0  0  0  0  0  0
   10.6368  -10.9038    0.0000 C    0  0  0  0  0  0  0  0  0  0  0  0
   12.8000  -14.6507    0.0000 C    0  0  0  0  0  0  0  0  0  0  0  0
    9.5551  -12.7772    0.0000 C    0  0  0  0  0  0  0  0  0  0  0  0
   10.6368  -14.6507    0.0000 C    0  0  0  0  0  0  0  0  0  0  0  0
   16.0449  -12.7772    0.0000 C    0  0  0  0  0  0  0  0  0  0  0  0
    9.5551   -9.0304    0.0000 C    0  0  0  0  0  0  0  0  0  0  0  0
   17.1265  -10.9038    0.0000 N    0  0  0  0  0  0  0  0  0  0  0  0
   10.6368   -7.1569    0.0000 N    0  0  0  0  0  0  0  0  0  0  0  0
   19.2898  -10.9038    0.0000 C    0  0  0  0  0  0  0  0  0  0  0  0
   19.2898  -13.0671    0.0000 C    0  0  0  0  0  0  0  0  0  0  0  0
   19.2898   -8.7406    0.0000 C    0  0  0  0  0  0  0  0  0  0  0  0
   21.4530  -10.9038    0.0000 C    0  0  0  0  0  0  0  0  0  0  0  0
    9.5552   -5.2835    0.0000 C    0  0  0  0  0  0  0  0  0  0  0  0
   11.4286   -4.2019    0.0000 C    0  0  0  0  0  0  0  0  0  0  0  0
    7.6817   -6.3651    0.0000 C    0  0  0  0  0  0  0  0  0  0  0  0
    8.4735   -3.4100    0.0000 C    0  0  0  0  0  0  0  0  0  0  0  0
  1  2  1  0  0  0  0
  1  3  1  0  0  0  0
  1  4  1  0  0  0  0
  4  5  1  0  0  0  0
  6  7  1  0  0  0  0
  6  8  2  0  0  0  0
  7  9  2  0  0  0  0
  8 10  1  0  0  0  0
  9 11  1  0  0  0  0
 10 11  2  0  0  0  0
  1  6  1  0  0  0  0
  7 12  1  0  0  0  0
  8 13  1  0  0  0  0
 12 14  2  0  0  0  0
 13 15  2  0  0  0  0
 16 17  1  0  0  0  0
 16 18  1  0  0  0  0
 16 19  1  0  0  0  0
 14 16  1  0  0  0  0
 20 21  1  0  0  0  0
 20 22  1  0  0  0  0
 20 23  1  0  0  0  0
 15 20  1  0  0  0  0
M  END
> <NMREDATA_VERSION>
1.1

> <NMREDATA_LEVEL>
0

> <NMREDATA_SOLVENT>
CD2Cl2

> <NMREDATA_TEMPERATURE>
298

> <NMREDATA_FORMULA>
C16H26Cl3N3Rh

> <NMREDATA_SMILES>
ClC[Rh](N1=C(C=CC=C1/C=N/C(C)(C)C)/C=N/C(C)(C)C)(Cl)Cl

> <NMREDATA_ASSIGNMENT>
Rh1, 4121.00, 1

> <NMREDATA_1D_103Rh>
4121.00, L=Rh1

$$$$

  ACD/LABS03242412442D

 29 31  0  0  0  0  0  0  0  0  1 V2000
   12.6310  -10.8092    0.0000 Rh   0  0  0  0  0  0  0  0  0  0  0  0
   10.7576   -9.7276    0.0000 Cl   0  0  0  0  0  0  0  0  0  0  0  0
   14.5044  -11.8908    0.0000 Cl   0  0  0  0  0  0  0  0  0  0  0  0
   13.7126   -8.9357    0.0000 C    0  0  0  0  0  0  0  0  0  0  0  0
   12.6310   -7.0623    0.0000 Cl   0  0  0  0  0  0  0  0  0  0  0  0
   11.5494  -12.6826    0.0000 N    0  0  0  0  0  0  0  0  0  0  0  0
   12.6310  -14.5560    0.0000 C    0  0  0  0  0  0  0  0  0  0  0  0
    9.3861  -12.6826    0.0000 C    0  0  0  0  0  0  0  0  0  0  0  0
   11.5494  -16.4295    0.0000 C    0  0  0  0  0  0  0  0  0  0  0  0
    8.3045  -14.5560    0.0000 C    0  0  0  0  0  0  0  0  0  0  0  0
    9.3861  -16.4295    0.0000 C    0  0  0  0  0  0  0  0  0  0  0  0
   14.7943  -14.5560    0.0000 C    0  0  0  0  0  0  0  0  0  0  0  0
    8.3045  -10.8092    0.0000 C    0  0  0  0  0  0  0  0  0  0  0  0
   15.8759  -12.6826    0.0000 N    0  0  0  0  0  0  0  0  0  0  0  0
    9.3861   -8.9357    0.0000 N    0  0  0  0  0  0  0  0  0  0  0  0
   18.0391  -12.6826    0.0000 O    0  0  0  0  0  0  0  0  0  0  0  0
    8.3045   -7.0623    0.0000 O    0  0  0  0  0  0  0  0  0  0  0  0
   12.6310   -3.3155    0.0000 C    0  0  0  0  0  0  0  0  0  0  0  0
   11.5494   -5.1889    0.0000 C    0  0  0  0  0  0  0  0  0  0  0  0
   11.5494   -1.4420    0.0000 C    0  0  0  0  0  0  0  0  0  0  0  0
    9.3861   -5.1889    0.0000 C    0  0  0  0  0  0  0  0  0  0  0  0
    9.3861   -1.4420    0.0000 C    0  0  0  0  0  0  0  0  0  0  0  0
    8.3045   -3.3155    0.0000 C    0  0  0  0  0  0  0  0  0  0  0  0
   21.2840   -7.0623    0.0000 C    0  0  0  0  0  0  0  0  0  0  0  0
   22.3656   -8.9358    0.0000 C    0  0  0  0  0  0  0  0  0  0  0  0
   19.1208   -7.0623    0.0000 C    0  0  0  0  0  0  0  0  0  0  0  0
   21.2840  -10.8092    0.0000 C    0  0  0  0  0  0  0  0  0  0  0  0
   18.0391   -8.9357    0.0000 C    0  0  0  0  0  0  0  0  0  0  0  0
   19.1208  -10.8092    0.0000 C    0  0  0  0  0  0  0  0  0  0  0  0
  1  2  1  0  0  0  0
  1  3  1  0  0  0  0
  1  4  1  0  0  0  0
  4  5  1  0  0  0  0
  6  7  1  0  0  0  0
  6  8  2  0  0  0  0
  7  9  2  0  0  0  0
  8 10  1  0  0  0  0
  9 11  1  0  0  0  0
 10 11  2  0  0  0  0
  1  6  1  0  0  0  0
  7 12  1  0  0  0  0
  8 13  1  0  0  0  0
 12 14  2  0  0  0  0
 13 15  2  0  0  0  0
 14 16  1  0  0  0  0
 15 17  1  0  0  0  0
 18 19  1  0  0  0  0
 18 20  2  0  0  0  0
 19 21  2  0  0  0  0
 20 22  1  0  0  0  0
 21 23  1  0  0  0  0
 22 23  2  0  0  0  0
 17 21  1  0  0  0  0
 24 25  1  0  0  0  0
 24 26  2  0  0  0  0
 25 27  2  0  0  0  0
 26 28  1  0  0  0  0
 27 29  1  0  0  0  0
 28 29  2  0  0  0  0
 16 29  1  0  0  0  0
M  END
> <NMREDATA_VERSION>
1.1

> <NMREDATA_LEVEL>
0

> <NMREDATA_SOLVENT>
CD2Cl2

> <NMREDATA_TEMPERATURE>
298

> <NMREDATA_FORMULA>
C20H18Cl3N3O2Rh

> <NMREDATA_SMILES>
ClC[Rh](N1=C(C=CC=C1/C=N/Oc1ccccc1)/C=N/Oc1ccccc1)(Cl)Cl

> <NMREDATA_ASSIGNMENT>
Rh1, 3654.00, 1

> <NMREDATA_1D_103Rh>
3654.00, L=Rh1

$$$$

  ACD/LABS03252414502D

 31 33  0  0  0  0  0  0  0  0  1 V2000
   18.2136   -9.1616    0.0000 Rh   0  0  0  0  0  0  0  0  0  0  0  0
   17.0618   -8.4966    0.0000 Cl   0  0  0  0  0  0  0  0  0  0  0  0
   19.3654   -9.8266    0.0000 Cl   0  0  0  0  0  0  0  0  0  0  0  0
   18.8786   -8.0097    0.0000 C    0  0  0  0  0  0  0  0  0  0  0  0
   18.2136   -6.8579    0.0000 Cl   0  0  0  0  0  0  0  0  0  0  0  0
   17.5486  -10.3134    0.0000 N    0  0  0  0  0  0  0  0  0  0  0  0
   18.2136  -11.4652    0.0000 C    0  0  0  0  0  0  0  0  0  0  0  0
   16.2185  -10.3134    0.0000 C    0  0  0  0  0  0  0  0  0  0  0  0
   17.5486  -12.6171    0.0000 C    0  0  0  0  0  0  0  0  0  0  0  0
   15.5535  -11.4652    0.0000 C    0  0  0  0  0  0  0  0  0  0  0  0
   16.2185  -12.6171    0.0000 C    0  0  0  0  0  0  0  0  0  0  0  0
   19.5436  -11.4652    0.0000 C    0  0  0  0  0  0  0  0  0  0  0  0
   15.5535   -9.1616    0.0000 C    0  0  0  0  0  0  0  0  0  0  0  0
   20.2086  -10.3134    0.0000 N    0  0  0  0  0  0  0  0  0  0  0  0
   16.2185   -8.0097    0.0000 N    0  0  0  0  0  0  0  0  0  0  0  0
   21.5386  -10.3134    0.0000 O    0  0  0  0  0  0  0  0  0  0  0  0
   15.5535   -6.8579    0.0000 O    0  0  0  0  0  0  0  0  0  0  0  0
   18.2136   -4.5542    0.0000 C    0  0  0  0  0  0  0  0  0  0  0  0
   17.5486   -5.7061    0.0000 C    0  0  0  0  0  0  0  0  0  0  0  0
   17.5486   -3.4024    0.0000 C    0  0  0  0  0  0  0  0  0  0  0  0
   16.2185   -5.7061    0.0000 C    0  0  0  0  0  0  0  0  0  0  0  0
   16.2185   -3.4024    0.0000 C    0  0  0  0  0  0  0  0  0  0  0  0
   15.5535   -4.5542    0.0000 C    0  0  0  0  0  0  0  0  0  0  0  0
   23.5337   -6.8579    0.0000 C    0  0  0  0  0  0  0  0  0  0  0  0
   24.1987   -8.0098    0.0000 C    0  0  0  0  0  0  0  0  0  0  0  0
   22.2037   -6.8579    0.0000 C    0  0  0  0  0  0  0  0  0  0  0  0
   23.5337   -9.1616    0.0000 C    0  0  0  0  0  0  0  0  0  0  0  0
   21.5386   -8.0097    0.0000 C    0  0  0  0  0  0  0  0  0  0  0  0
   22.2037   -9.1616    0.0000 C    0  0  0  0  0  0  0  0  0  0  0  0
   20.2086  -12.6170    0.0000 C    0  0  0  0  0  0  0  0  0  0  0  0
   14.2235   -9.1616    0.0000 C    0  0  0  0  0  0  0  0  0  0  0  0
  1  2  1  0  0  0  0
  1  3  1  0  0  0  0
  1  4  1  0  0  0  0
  4  5  1  0  0  0  0
  6  7  1  0  0  0  0
  6  8  2  0  0  0  0
  7  9  2  0  0  0  0
  8 10  1  0  0  0  0
  9 11  1  0  0  0  0
 10 11  2  0  0  0  0
  1  6  1  0  0  0  0
  7 12  1  0  0  0  0
  8 13  1  0  0  0  0
 12 14  2  0  0  0  0
 13 15  2  0  0  0  0
 14 16  1  0  0  0  0
 15 17  1  0  0  0  0
 18 19  1  0  0  0  0
 18 20  2  0  0  0  0
 19 21  2  0  0  0  0
 20 22  1  0  0  0  0
 21 23  1  0  0  0  0
 22 23  2  0  0  0  0
 17 21  1  0  0  0  0
 24 25  1  0  0  0  0
 24 26  2  0  0  0  0
 25 27  2  0  0  0  0
 26 28  1  0  0  0  0
 27 29  1  0  0  0  0
 28 29  2  0  0  0  0
 16 29  1  0  0  0  0
 12 30  1  0  0  0  0
 13 31  1  0  0  0  0
M  END
> <NMREDATA_VERSION>
1.1

> <NMREDATA_LEVEL>
0

> <NMREDATA_SOLVENT>
CD2Cl2

> <NMREDATA_TEMPERATURE>
298

> <NMREDATA_FORMULA>
C22H22Cl3N3O2Rh

> <NMREDATA_SMILES>
ClC[Rh](N1=C(C=CC=C1/C(=N/Oc1ccccc1)/C)/C(=N/Oc1ccccc1)/C)(Cl)Cl

> <NMREDATA_ASSIGNMENT>
Rh1, 3561.00, 1

> <NMREDATA_1D_103Rh>
3561.00, L=Rh1

$$$$

  ACD/LABS03252414522D

 27 28  0  0  0  0  0  0  0  0  1 V2000
   16.2118  -12.2010    0.0000 C    0  0  0  0  0  0  0  0  0  0  0  0
   17.3636  -12.8660    0.0000 C    0  0  0  0  0  0  0  0  0  0  0  0
   16.2033  -10.8858    0.0000 C    0  0  0  0  0  0  0  0  0  0  0  0
   18.5072  -12.2160    0.0000 C    0  0  0  0  0  0  0  0  0  0  0  0
   17.3555  -10.2200    0.0000 C    0  0  0  0  0  0  0  0  0  0  0  0
   18.5074  -10.8850    0.0000 C    0  0  0  0  0  0  0  0  0  0  0  0
   13.8993   -9.5556    0.0000 Rh   0  0  0  0  0  0  0  0  0  0  0  0
   13.8998   -8.2249    0.0000 C    0  0  0  0  0  0  0  0  0  0  0  0
   12.5988   -7.9959    0.0000 F    0  0  0  0  0  0  0  0  0  0  0  0
   15.2129   -7.9897    0.0000 F    0  0  0  0  0  0  0  0  0  0  0  0
   13.9083   -6.8983    0.0000 F    0  0  0  0  0  0  0  0  0  0  0  0
   15.0516   -8.8899    0.0000 Cl   0  0  0  0  0  0  0  0  0  0  0  0
   13.9078  -10.8709    0.0000 I    0  0  0  0  0  0  0  0  0  0  0  0
   15.0511  -10.2206    0.0000 P    0  0  0  0  0  0  0  0  0  0  0  0
   14.6038  -11.4567    0.0000 C    0  0  0  0  0  0  0  0  0  0  0  0
   15.9072   -9.1993    0.0000 C    0  0  0  0  0  0  0  0  0  0  0  0
   12.8839  -10.3924    0.0000 C    0  0  0  0  0  0  0  0  0  0  0  0
   11.8750  -11.2536    0.0000 O    0  0  0  0  0  0  0  0  0  0  0  0
   11.3962   -8.1105    0.0000 P    0  0  0  0  0  0  0  0  0  0  0  0
   10.5494   -9.1159    0.0000 C    0  0  0  0  0  0  0  0  0  0  0  0
   11.8527   -6.8585    0.0000 C    0  0  0  0  0  0  0  0  0  0  0  0
   10.2441   -7.4453    0.0000 C    0  0  0  0  0  0  0  0  0  0  0  0
   10.2445   -6.1145    0.0000 C    0  0  0  0  0  0  0  0  0  0  0  0
    9.1008   -8.0955    0.0000 C    0  0  0  0  0  0  0  0  0  0  0  0
    9.0927   -5.4495    0.0000 C    0  0  0  0  0  0  0  0  0  0  0  0
    7.9490   -7.4305    0.0000 C    0  0  0  0  0  0  0  0  0  0  0  0
    7.9401   -6.1151    0.0000 C    0  0  0  0  0  0  0  0  0  0  0  0
  1  2  1  0  0  0  0
  1  3  2  0  0  0  0
  2  4  2  0  0  0  0
  3  5  1  0  0  0  0
  4  6  1  0  0  0  0
  5  6  2  0  0  0  0
  7  8  1  0  0  0  0
  8  9  1  0  0  0  0
  8 10  1  0  0  0  0
  8 11  1  0  0  0  0
  7 12  1  0  0  0  0
  7 13  1  0  0  0  0
  7 14  1  0  0  0  0
 14 15  1  0  0  0  0
 14 16  1  0  0  0  0
  3 14  1  0  0  0  0
  7 17  1  0  0  0  0
 17 18  3  0  0  0  0
  7 19  1  0  0  0  0
 19 20  1  0  0  0  0
 19 21  1  0  0  0  0
 22 23  1  0  0  0  0
 22 24  2  0  0  0  0
 23 25  2  0  0  0  0
 24 26  1  0  0  0  0
 25 27  1  0  0  0  0
 26 27  2  0  0  0  0
 19 22  1  0  0  0  0
M  END
> <NMREDATA_VERSION>
1.1

> <NMREDATA_LEVEL>
0

> <NMREDATA_SOLVENT>
C6D6

> <NMREDATA_TEMPERATURE>
297

> <NMREDATA_FORMULA>
C18H24ClF3IOP2Rh

> <NMREDATA_SMILES>
[O]#C[Rh](P(c1ccccc1)(C)C)(P(c1ccccc1)(C)C)(C(F)(F)F)(I)Cl

> <NMREDATA_ASSIGNMENT>
Rh7, 706.00, 7

> <NMREDATA_1D_103Rh>
706.00, L=Rh7

$$$$

  ACD/LABS03252414532D

 27 28  0  0  0  0  0  0  0  0  1 V2000
   16.2118  -12.2010    0.0000 C    0  0  0  0  0  0  0  0  0  0  0  0
   17.3636  -12.8660    0.0000 C    0  0  0  0  0  0  0  0  0  0  0  0
   16.2033  -10.8858    0.0000 C    0  0  0  0  0  0  0  0  0  0  0  0
   18.5072  -12.2160    0.0000 C    0  0  0  0  0  0  0  0  0  0  0  0
   17.3555  -10.2200    0.0000 C    0  0  0  0  0  0  0  0  0  0  0  0
   18.5074  -10.8850    0.0000 C    0  0  0  0  0  0  0  0  0  0  0  0
   13.8993   -9.5556    0.0000 Rh   0  0  0  0  0  0  0  0  0  0  0  0
   13.8998   -8.2249    0.0000 C    0  0  0  0  0  0  0  0  0  0  0  0
   12.5988   -7.9959    0.0000 F    0  0  0  0  0  0  0  0  0  0  0  0
   15.2129   -7.9897    0.0000 F    0  0  0  0  0  0  0  0  0  0  0  0
   13.9083   -6.8983    0.0000 F    0  0  0  0  0  0  0  0  0  0  0  0
   15.0516   -8.8899    0.0000 Br   0  0  0  0  0  0  0  0  0  0  0  0
   13.9078  -10.8709    0.0000 I    0  0  0  0  0  0  0  0  0  0  0  0
   15.0511  -10.2206    0.0000 P    0  0  0  0  0  0  0  0  0  0  0  0
   14.6038  -11.4567    0.0000 C    0  0  0  0  0  0  0  0  0  0  0  0
   15.9072   -9.1993    0.0000 C    0  0  0  0  0  0  0  0  0  0  0  0
   12.8839  -10.3924    0.0000 C    0  0  0  0  0  0  0  0  0  0  0  0
   11.8750  -11.2536    0.0000 O    0  0  0  0  0  0  0  0  0  0  0  0
   11.3962   -8.1105    0.0000 P    0  0  0  0  0  0  0  0  0  0  0  0
   10.5494   -9.1159    0.0000 C    0  0  0  0  0  0  0  0  0  0  0  0
   11.8527   -6.8585    0.0000 C    0  0  0  0  0  0  0  0  0  0  0  0
   10.2441   -7.4453    0.0000 C    0  0  0  0  0  0  0  0  0  0  0  0
   10.2445   -6.1145    0.0000 C    0  0  0  0  0  0  0  0  0  0  0  0
    9.1008   -8.0955    0.0000 C    0  0  0  0  0  0  0  0  0  0  0  0
    9.0927   -5.4495    0.0000 C    0  0  0  0  0  0  0  0  0  0  0  0
    7.9490   -7.4305    0.0000 C    0  0  0  0  0  0  0  0  0  0  0  0
    7.9401   -6.1151    0.0000 C    0  0  0  0  0  0  0  0  0  0  0  0
  1  2  1  0  0  0  0
  1  3  2  0  0  0  0
  2  4  2  0  0  0  0
  3  5  1  0  0  0  0
  4  6  1  0  0  0  0
  5  6  2  0  0  0  0
  7  8  1  0  0  0  0
  8  9  1  0  0  0  0
  8 10  1  0  0  0  0
  8 11  1  0  0  0  0
  7 12  1  0  0  0  0
  7 13  1  0  0  0  0
  7 14  1  0  0  0  0
 14 15  1  0  0  0  0
 14 16  1  0  0  0  0
  3 14  1  0  0  0  0
  7 17  1  0  0  0  0
 17 18  3  0  0  0  0
  7 19  1  0  0  0  0
 19 20  1  0  0  0  0
 19 21  1  0  0  0  0
 22 23  1  0  0  0  0
 22 24  2  0  0  0  0
 23 25  2  0  0  0  0
 24 26  1  0  0  0  0
 25 27  1  0  0  0  0
 26 27  2  0  0  0  0
 19 22  1  0  0  0  0
M  END
> <NMREDATA_VERSION>
1.1

> <NMREDATA_LEVEL>
0

> <NMREDATA_SOLVENT>
C6D6

> <NMREDATA_TEMPERATURE>
297

> <NMREDATA_FORMULA>
C18H24BrF3IOP2Rh

> <NMREDATA_SMILES>
[O]#C[Rh](P(c1ccccc1)(C)C)(P(c1ccccc1)(C)C)(C(F)(F)F)(I)Br

> <NMREDATA_ASSIGNMENT>
Rh7, 625.00, 7

> <NMREDATA_1D_103Rh>
625.00, L=Rh7

$$$$

  ACD/LABS03252414532D

 27 28  0  0  0  0  0  0  0  0  1 V2000
   16.2118  -12.2010    0.0000 C    0  0  0  0  0  0  0  0  0  0  0  0
   17.3636  -12.8660    0.0000 C    0  0  0  0  0  0  0  0  0  0  0  0
   16.2033  -10.8858    0.0000 C    0  0  0  0  0  0  0  0  0  0  0  0
   18.5072  -12.2160    0.0000 C    0  0  0  0  0  0  0  0  0  0  0  0
   17.3555  -10.2200    0.0000 C    0  0  0  0  0  0  0  0  0  0  0  0
   18.5074  -10.8850    0.0000 C    0  0  0  0  0  0  0  0  0  0  0  0
   13.8993   -9.5556    0.0000 Rh   0  0  0  0  0  0  0  0  0  0  0  0
   13.8998   -8.2249    0.0000 C    0  0  0  0  0  0  0  0  0  0  0  0
   12.5988   -7.9959    0.0000 F    0  0  0  0  0  0  0  0  0  0  0  0
   15.2129   -7.9897    0.0000 F    0  0  0  0  0  0  0  0  0  0  0  0
   13.9083   -6.8983    0.0000 F    0  0  0  0  0  0  0  0  0  0  0  0
   15.0516   -8.8899    0.0000 I    0  0  0  0  0  0  0  0  0  0  0  0
   13.9078  -10.8709    0.0000 I    0  0  0  0  0  0  0  0  0  0  0  0
   15.0511  -10.2206    0.0000 P    0  0  0  0  0  0  0  0  0  0  0  0
   14.6038  -11.4567    0.0000 C    0  0  0  0  0  0  0  0  0  0  0  0
   15.9072   -9.1993    0.0000 C    0  0  0  0  0  0  0  0  0  0  0  0
   12.8839  -10.3924    0.0000 C    0  0  0  0  0  0  0  0  0  0  0  0
   11.8750  -11.2536    0.0000 O    0  0  0  0  0  0  0  0  0  0  0  0
   11.3962   -8.1105    0.0000 P    0  0  0  0  0  0  0  0  0  0  0  0
   10.5494   -9.1159    0.0000 C    0  0  0  0  0  0  0  0  0  0  0  0
   11.8527   -6.8585    0.0000 C    0  0  0  0  0  0  0  0  0  0  0  0
   10.2441   -7.4453    0.0000 C    0  0  0  0  0  0  0  0  0  0  0  0
   10.2445   -6.1145    0.0000 C    0  0  0  0  0  0  0  0  0  0  0  0
    9.1008   -8.0955    0.0000 C    0  0  0  0  0  0  0  0  0  0  0  0
    9.0927   -5.4495    0.0000 C    0  0  0  0  0  0  0  0  0  0  0  0
    7.9490   -7.4305    0.0000 C    0  0  0  0  0  0  0  0  0  0  0  0
    7.9401   -6.1151    0.0000 C    0  0  0  0  0  0  0  0  0  0  0  0
  1  2  1  0  0  0  0
  1  3  2  0  0  0  0
  2  4  2  0  0  0  0
  3  5  1  0  0  0  0
  4  6  1  0  0  0  0
  5  6  2  0  0  0  0
  7  8  1  0  0  0  0
  8  9  1  0  0  0  0
  8 10  1  0  0  0  0
  8 11  1  0  0  0  0
  7 12  1  0  0  0  0
  7 13  1  0  0  0  0
  7 14  1  0  0  0  0
 14 15  1  0  0  0  0
 14 16  1  0  0  0  0
  3 14  1  0  0  0  0
  7 17  1  0  0  0  0
 17 18  3  0  0  0  0
  7 19  1  0  0  0  0
 19 20  1  0  0  0  0
 19 21  1  0  0  0  0
 22 23  1  0  0  0  0
 22 24  2  0  0  0  0
 23 25  2  0  0  0  0
 24 26  1  0  0  0  0
 25 27  1  0  0  0  0
 26 27  2  0  0  0  0
 19 22  1  0  0  0  0
M  END
> <NMREDATA_VERSION>
1.1

> <NMREDATA_LEVEL>
0

> <NMREDATA_SOLVENT>
C6D6

> <NMREDATA_TEMPERATURE>
297

> <NMREDATA_FORMULA>
C18H24F3I2OP2Rh

> <NMREDATA_SMILES>
[O]#C[Rh](P(c1ccccc1)(C)C)(P(c1ccccc1)(C)C)(C(F)(F)F)(I)I

> <NMREDATA_ASSIGNMENT>
Rh7, 453.00, 7

> <NMREDATA_1D_103Rh>
453.00, L=Rh7

$$$$

  ACD/LABS03242411472D

 28 28  0  0  0  0  0  0  0  0  1 V2000
   13.1561  -12.5934    0.0000 O    0  0  0  0  0  0  0  0  0  0  0  0
   14.3080  -11.9284    0.0000 N    0  0  0  0  0  0  0  0  0  0  0  0
   15.4598  -12.5934    0.0000 C    0  0  0  0  0  0  0  0  0  0  0  0
   15.4598  -13.9234    0.0000 C    0  0  0  0  0  0  0  0  0  0  0  0
   16.6116  -11.9284    0.0000 C    0  0  0  0  0  0  0  0  0  0  0  0
   17.7634  -12.5934    0.0000 C    0  0  0  0  0  0  0  0  0  0  0  0
   16.6116  -10.5984    0.0000 N    0  0  0  0  0  0  0  0  0  0  0  0
   17.7634   -9.9334    0.0000 O    0  0  0  0  0  0  0  0  0  0  0  0
   11.7784  -12.0589    0.0000 O    0  0  0  0  0  0  0  0  0  0  0  0
   12.4434  -10.9070    0.0000 N    0  0  0  0  0  0  0  0  0  0  0  0
   13.7734  -10.9070    0.0000 C    0  0  0  0  0  0  0  0  0  0  0  0
   14.4384  -12.0589    0.0000 C    0  0  0  0  0  0  0  0  0  0  0  0
   14.4384   -9.7552    0.0000 C    0  0  0  0  0  0  0  0  0  0  0  0
   13.7734   -8.6034    0.0000 C    0  0  0  0  0  0  0  0  0  0  0  0
   15.7684   -9.7552    0.0000 N    0  0  0  0  0  0  0  0  0  0  0  0
   16.4334   -8.6034    0.0000 O    0  0  0  0  0  0  0  0  0  0  0  0
   17.7634   -8.6034    0.0000 Rh   0  0  0  0  0  0  0  0  0  0  0  0
   19.0934   -8.6034    0.0000 C    0  0  0  0  0  0  0  0  0  0  0  0
   19.7584   -9.7552    0.0000 C    0  0  0  0  0  0  0  0  0  0  0  0
   17.7634   -7.2734    0.0000 N    0  0  0  0  0  0  0  0  0  0  0  0
   16.6116   -6.6084    0.0000 C    0  0  0  0  0  0  0  0  0  0  0  0
   18.9152   -6.6084    0.0000 C    0  0  0  0  0  0  0  0  0  0  0  0
   16.6116   -5.2784    0.0000 C    0  0  0  0  0  0  0  0  0  0  0  0
   18.9152   -5.2784    0.0000 C    0  0  0  0  0  0  0  0  0  0  0  0
   17.7634   -4.6134    0.0000 C    0  0  0  0  0  0  0  0  0  0  0  0
   20.9102   -9.0902    0.0000 F    0  0  0  0  0  0  0  0  0  0  0  0
   18.6066  -10.4202    0.0000 F    0  0  0  0  0  0  0  0  0  0  0  0
   20.4234  -10.9070    0.0000 F    0  0  0  0  0  0  0  0  0  0  0  0
  1  2  1  0  0  0  0
  2  3  2  0  0  0  0
  3  4  1  0  0  0  0
  3  5  1  0  0  0  0
  5  6  1  0  0  0  0
  5  7  2  0  0  0  0
  7  8  1  0  0  0  0
  9 10  1  0  0  0  0
 10 11  2  0  0  0  0
 11 12  1  0  0  0  0
 11 13  1  0  0  0  0
 13 14  1  0  0  0  0
 13 15  2  0  0  0  0
 15 16  1  0  0  0  0
 16 17  1  0  0  0  0
 17 18  1  0  0  0  0
  8 17  1  0  0  0  0
 18 19  1  0  0  0  0
 20 21  1  0  0  0  0
 20 22  2  0  0  0  0
 21 23  2  0  0  0  0
 22 24  1  0  0  0  0
 23 25  1  0  0  0  0
 24 25  2  0  0  0  0
 17 20  1  0  0  0  0
 19 26  1  0  0  0  0
 19 27  1  0  0  0  0
 19 28  1  0  0  0  0
M  END
> <NMREDATA_VERSION>
1.1

> <NMREDATA_LEVEL>
0

> <NMREDATA_SOLVENT>
DCCl3

> <NMREDATA_TEMPERATURE>
298

> <NMREDATA_FORMULA>
C15H22F3N5O4Rh

> <NMREDATA_SMILES>
O/N=C(/C(=N/O[Rh](N1=CC=CC=C1)(CC(F)(F)F)O/N=C(/C(=N/O)/C)\C)/C)\C

> <NMREDATA_ASSIGNMENT>
Rh17, 2741.00, 17

> <NMREDATA_1D_103Rh>
2741.00, L=Rh17

$$$$

  ACD/LABS03252415502D

 38 43  0  0  0  0  0  0  0  0  1 V2000
   11.2136   -2.6811    0.0000 C    0  0  0  0  0  0  0  0  0  0  0  0
   12.3577   -1.9977    0.0000 C    0  0  0  0  0  0  0  0  0  0  0  0
   11.2223   -4.0116    0.0000 C    0  0  0  0  0  0  0  0  0  0  0  0
   13.5108   -2.6542    0.0000 C    0  0  0  0  0  0  0  0  0  0  0  0
   12.3845   -4.6591    0.0000 C    0  0  0  0  0  0  0  0  0  0  0  0
   13.5195   -3.9851    0.0000 C    0  0  0  0  0  0  0  0  0  0  0  0
   11.8433   -8.7573    0.0000 B    0  0  0  0  0  0  0  0  0  0  0  0
   15.3561   -7.9146    0.0000 N    0  0  0  0  0  0  0  0  0  0  0  0
   16.6866   -7.8790    0.0000 C    0  0  0  0  0  0  0  0  0  0  0  0
   14.9122   -6.6731    0.0000 N    0  0  0  0  0  0  0  0  0  0  0  0
   17.0680   -6.6196    0.0000 C    0  0  0  0  0  0  0  0  0  0  0  0
   15.9680   -5.8657    0.0000 C    0  0  0  0  0  0  0  0  0  0  0  0
    9.6253   -7.3293    0.0000 N    0  0  0  0  0  0  0  0  0  0  0  0
   10.2022   -6.1230    0.0000 N    0  0  0  0  0  0  0  0  0  0  0  0
    8.3126   -7.1519    0.0000 C    0  0  0  0  0  0  0  0  0  0  0  0
    9.2352   -5.2091    0.0000 C    0  0  0  0  0  0  0  0  0  0  0  0
    8.0643   -5.8391    0.0000 C    0  0  0  0  0  0  0  0  0  0  0  0
   12.0029  -10.6113    0.0000 N    0  0  0  0  0  0  0  0  0  0  0  0
   13.2447  -10.1590    0.0000 N    0  0  0  0  0  0  0  0  0  0  0  0
   12.0385  -11.9422    0.0000 C    0  0  0  0  0  0  0  0  0  0  0  0
   14.0518  -11.2147    0.0000 C    0  0  0  0  0  0  0  0  0  0  0  0
   13.2978  -12.3148    0.0000 C    0  0  0  0  0  0  0  0  0  0  0  0
   11.2667   -9.9551    0.0000 H    0  0  0  0  0  0  0  0  0  0  0  0
    9.4127   -3.8873    0.0000 C    0  0  0  0  0  0  0  0  0  0  0  0
    7.3900   -8.1098    0.0000 C    0  0  0  0  0  0  0  0  0  0  0  0
   15.9327   -4.5351    0.0000 C    0  0  0  0  0  0  0  0  0  0  0  0
   17.5028   -8.9347    0.0000 C    0  0  0  0  0  0  0  0  0  0  0  0
   15.3826  -11.1882    0.0000 C    0  0  0  0  0  0  0  0  0  0  0  0
   10.9828  -12.7496    0.0000 C    0  0  0  0  0  0  0  0  0  0  0  0
   12.4111   -7.5510    0.0000 Rh   0  0  0  0  0  0  0  0  0  0  0  0
   14.6818   -5.7592    0.0000 H    0  0  0  0  0  0  0  0  0  0  0  0
   13.1738   -6.4779    0.0000 P    0  0  0  0  0  0  0  0  0  0  0  0
   14.2648   -7.2496    0.0000 O    0  0  0  0  0  0  0  0  0  0  0  0
   12.2515   -5.5287    0.0000 O    0  0  0  0  0  0  0  0  0  0  0  0
   14.8592   -4.1091    0.0000 O    0  0  0  0  0  0  0  0  0  0  0  0
   14.1317   -8.5620    0.0000 C    0  0  0  0  0  0  0  0  0  0  0  0
   10.9650   -5.8657    0.0000 C    0  0  0  0  0  0  0  0  0  0  0  0
   14.5222   -2.8229    0.0000 C    0  0  0  0  0  0  0  0  0  0  0  0
  1  2  1  0  0  0  0
  1  3  2  0  0  0  0
  2  4  2  0  0  0  0
  3  5  1  0  0  0  0
  4  6  1  0  0  0  0
  5  6  2  0  0  0  0
  8  9  1  0  0  0  0
  8 10  1  0  0  0  0
  9 11  2  0  0  0  0
 10 12  2  0  0  0  0
 11 12  1  0  0  0  0
  7  8  1  0  0  0  0
 13 14  1  0  0  0  0
 13 15  1  0  0  0  0
 14 16  2  0  0  0  0
 15 17  2  0  0  0  0
 16 17  1  0  0  0  0
  7 13  1  0  0  0  0
 18 19  1  0  0  0  0
 18 20  1  0  0  0  0
 19 21  2  0  0  0  0
 20 22  2  0  0  0  0
 21 22  1  0  0  0  0
  7 18  1  0  0  0  0
  7 23  1  0  0  0  0
 16 24  1  0  0  0  0
 15 25  1  0  0  0  0
 12 26  1  0  0  0  0
  9 27  1  0  0  0  0
 21 28  1  0  0  0  0
 20 29  1  0  0  0  0
 19 30  1  0  0  0  0
 10 30  1  0  0  0  0
 14 30  1  0  0  0  0
  5 30  1  0  0  0  0
 30 31  1  0  0  0  0
 30 32  1  0  0  0  0
 32 33  1  0  0  0  0
 32 34  1  0  0  0  0
 32 35  1  0  0  0  0
 33 36  1  0  0  0  0
 34 37  1  0  0  0  0
 35 38  1  0  0  0  0
M  END
> <NMREDATA_VERSION>
1.1

> <NMREDATA_LEVEL>
0

> <NMREDATA_SOLVENT>
C6D6

> <NMREDATA_TEMPERATURE>
295

> <NMREDATA_FORMULA>
C24H41BN6O3PRh

> <NMREDATA_SMILES>
COP([RhH]12(c3ccccc3)N3=C(C)C=C(N3[BH](N3N1=C(C)C=C3C)N1N2=C(C)C=C1C)C)(OC)OC

> <NMREDATA_ASSIGNMENT>
Rh30, 1270.00, 30

> <NMREDATA_1D_103Rh>
1270.00, L=Rh30

$$$$

  ACD/LABS03252415522D

 42 45  0  0  0  0  0  0  0  0  1 V2000
   24.1408   -8.7027    0.0000 C    0  0  0  0  0  0  0  0  0  0  0  0
   24.8048   -7.5521    0.0000 C    0  0  0  0  0  0  0  0  0  0  0  0
   22.8132   -8.7027    0.0000 C    0  0  0  0  0  0  0  0  0  0  0  0
   24.1408   -6.4014    0.0000 C    0  0  0  0  0  0  0  0  0  0  0  0
   22.1495   -7.5521    0.0000 C    0  0  0  0  0  0  0  0  0  0  0  0
   22.8132   -6.4014    0.0000 C    0  0  0  0  0  0  0  0  0  0  0  0
   15.3346  -13.0481    0.0000 O    0  0  0  0  0  0  0  0  0  0  0  0
   15.7862  -11.8002    0.0000 N    0  0  0  0  0  0  0  0  0  0  0  0
   17.0959  -11.5698    0.0000 C    0  0  0  0  0  0  0  0  0  0  0  0
   17.9457  -12.5878    0.0000 C    0  0  0  0  0  0  0  0  0  0  0  0
   17.5563  -10.3309    0.0000 C    0  0  0  0  0  0  0  0  0  0  0  0
   16.6978   -9.3042    0.0000 C    0  0  0  0  0  0  0  0  0  0  0  0
   18.8573  -10.1006    0.0000 N    0  0  0  0  0  0  0  0  0  0  0  0
   19.3177   -8.8618    0.0000 O    0  0  0  0  0  0  0  0  0  0  0  0
   22.9901  -15.1012    0.0000 O    0  0  0  0  0  0  0  0  0  0  0  0
   21.9638  -14.2518    0.0000 N    0  0  0  0  0  0  0  0  0  0  0  0
   22.1938  -12.9417    0.0000 C    0  0  0  0  0  0  0  0  0  0  0  0
   23.4417  -12.4817    0.0000 C    0  0  0  0  0  0  0  0  0  0  0  0
   21.1758  -12.0923    0.0000 C    0  0  0  0  0  0  0  0  0  0  0  0
   19.9371  -12.5435    0.0000 C    0  0  0  0  0  0  0  0  0  0  0  0
   21.4062  -10.7822    0.0000 N    0  0  0  0  0  0  0  0  0  0  0  0
   20.3883   -9.9324    0.0000 O    0  0  0  0  0  0  0  0  0  0  0  0
   20.6182   -8.6318    0.0000 Rh   0  0  0  0  0  0  0  0  0  0  0  0
   20.8395   -7.3221    0.0000 P    0  0  0  0  0  5  0  0  0  0  0  0
   21.0698   -6.0208    0.0000 C    0  0  0  0  0  0  0  0  0  0  0  0
   20.0610   -5.1623    0.0000 C    0  0  0  0  0  0  0  0  0  0  0  0
   22.3177   -5.5608    0.0000 C    0  0  0  0  0  0  0  0  0  0  0  0
   20.2819   -3.8613    0.0000 C    0  0  0  0  0  0  0  0  0  0  0  0
   22.5477   -4.2507    0.0000 C    0  0  0  0  0  0  0  0  0  0  0  0
   21.5298   -3.4013    0.0000 C    0  0  0  0  0  0  0  0  0  0  0  0
   19.5476   -7.1009    0.0000 C    0  0  0  0  0  0  0  0  0  0  0  0
   18.6891   -8.1185    0.0000 C    0  0  0  0  0  0  0  0  0  0  0  0
   19.0877   -5.8526    0.0000 C    0  0  0  0  0  0  0  0  0  0  0  0
   17.3881   -7.8885    0.0000 C    0  0  0  0  0  0  0  0  0  0  0  0
   17.7775   -5.6226    0.0000 C    0  0  0  0  0  0  0  0  0  0  0  0
   16.9277   -6.6405    0.0000 C    0  0  0  0  0  0  0  0  0  0  0  0
   21.9287   -8.8584    0.0000 C    0  0  0  0  0  0  0  0  0  0  0  0
   22.7802   -7.8367    0.0000 C    0  0  0  0  0  0  0  0  0  0  0  0
   22.3879  -10.1067    0.0000 C    0  0  0  0  0  0  0  0  0  0  0  0
   24.0909   -8.0633    0.0000 C    0  0  0  0  0  0  0  0  0  0  0  0
   23.6984  -10.3332    0.0000 C    0  0  0  0  0  0  0  0  0  0  0  0
   24.5499   -9.3116    0.0000 C    0  0  0  0  0  0  0  0  0  0  0  0
  1  2  1  0  0  0  0
  1  3  2  0  0  0  0
  2  4  2  0  0  0  0
  3  5  1  0  0  0  0
  4  6  1  0  0  0  0
  5  6  2  0  0  0  0
  7  8  1  0  0  0  0
  8  9  2  0  0  0  0
  9 10  1  0  0  0  0
  9 11  1  0  0  0  0
 11 12  1  0  0  0  0
 11 13  2  0  0  0  0
 13 14  1  0  0  0  0
 15 16  1  0  0  0  0
 16 17  2  0  0  0  0
 17 18  1  0  0  0  0
 17 19  1  0  0  0  0
 19 20  1  0  0  0  0
 19 21  2  0  0  0  0
 21 22  1  0  0  0  0
 22 23  1  0  0  0  0
 14 23  1  0  0  0  0
 23 24  1  0  0  0  0
 25 26  1  0  0  0  0
 25 27  2  0  0  0  0
 26 28  2  0  0  0  0
 27 29  1  0  0  0  0
 28 30  1  0  0  0  0
 29 30  2  0  0  0  0
 24 25  1  0  0  0  0
 31 32  1  0  0  0  0
 31 33  2  0  0  0  0
 32 34  2  0  0  0  0
 33 35  1  0  0  0  0
 34 36  1  0  0  0  0
 35 36  2  0  0  0  0
 24 31  1  0  0  0  0
  5 24  1  0  0  0  0
 37 38  1  0  0  0  0
 37 39  2  0  0  0  0
 38 40  2  0  0  0  0
 39 41  1  0  0  0  0
 40 42  1  0  0  0  0
 41 42  2  0  0  0  0
 23 37  1  0  0  0  0
M  END
> <NMREDATA_VERSION>
1.1

> <NMREDATA_LEVEL>
0

> <NMREDATA_SOLVENT>
DCCl3

> <NMREDATA_TEMPERATURE>
298

> <NMREDATA_FORMULA>
C32H35N4O4PRh

> <NMREDATA_SMILES>
O/N=C(/C(=N/O[Rh](P(c1ccccc1)(c1ccccc1)c1ccccc1)(c1ccccc1)O/N=C(/C(=N/O)/C)\C)/C)\C

> <NMREDATA_ASSIGNMENT>
Rh23, 2264.00, 23

> <NMREDATA_1D_103Rh>
2264.00, L=Rh23

$$$$

  ACD/LABS03252415532D

 27 27  0  0  0  0  0  0  0  0  1 V2000
   15.3346  -13.0481    0.0000 O    0  0  0  0  0  0  0  0  0  0  0  0
   15.7862  -11.8002    0.0000 N    0  0  0  0  0  0  0  0  0  0  0  0
   17.0959  -11.5698    0.0000 C    0  0  0  0  0  0  0  0  0  0  0  0
   17.9457  -12.5878    0.0000 C    0  0  0  0  0  0  0  0  0  0  0  0
   17.5563  -10.3309    0.0000 C    0  0  0  0  0  0  0  0  0  0  0  0
   16.6978   -9.3042    0.0000 C    0  0  0  0  0  0  0  0  0  0  0  0
   18.8573  -10.1006    0.0000 N    0  0  0  0  0  0  0  0  0  0  0  0
   19.3177   -8.8618    0.0000 O    0  0  0  0  0  0  0  0  0  0  0  0
   22.9901  -15.1012    0.0000 O    0  0  0  0  0  0  0  0  0  0  0  0
   21.9638  -14.2518    0.0000 N    0  0  0  0  0  0  0  0  0  0  0  0
   22.1938  -12.9417    0.0000 C    0  0  0  0  0  0  0  0  0  0  0  0
   23.4417  -12.4817    0.0000 C    0  0  0  0  0  0  0  0  0  0  0  0
   21.1758  -12.0923    0.0000 C    0  0  0  0  0  0  0  0  0  0  0  0
   19.9371  -12.5435    0.0000 C    0  0  0  0  0  0  0  0  0  0  0  0
   21.4062  -10.7822    0.0000 N    0  0  0  0  0  0  0  0  0  0  0  0
   20.3883   -9.9324    0.0000 O    0  0  0  0  0  0  0  0  0  0  0  0
   20.6182   -8.6318    0.0000 Rh   0  0  0  0  0  0  0  0  0  0  0  0
   21.9287   -8.8584    0.0000 C    0  0  0  0  0  0  0  0  0  0  0  0
   22.7802   -7.8367    0.0000 C    0  0  0  0  0  0  0  0  0  0  0  0
   22.3879  -10.1067    0.0000 C    0  0  0  0  0  0  0  0  0  0  0  0
   24.0909   -8.0633    0.0000 C    0  0  0  0  0  0  0  0  0  0  0  0
   23.6984  -10.3332    0.0000 C    0  0  0  0  0  0  0  0  0  0  0  0
   24.5499   -9.3116    0.0000 C    0  0  0  0  0  0  0  0  0  0  0  0
   20.7993   -7.1948    0.0000 P    0  0  0  0  0  0  0  0  0  0  0  0
   22.0252   -6.6791    0.0000 C    0  0  0  0  0  0  0  0  0  0  0  0
   19.7397   -6.3910    0.0000 C    0  0  0  0  0  0  0  0  0  0  0  0
   19.5734   -7.7106    0.0000 C    0  0  0  0  0  0  0  0  0  0  0  0
  1  2  1  0  0  0  0
  2  3  2  0  0  0  0
  3  4  1  0  0  0  0
  3  5  1  0  0  0  0
  5  6  1  0  0  0  0
  5  7  2  0  0  0  0
  7  8  1  0  0  0  0
  9 10  1  0  0  0  0
 10 11  2  0  0  0  0
 11 12  1  0  0  0  0
 11 13  1  0  0  0  0
 13 14  1  0  0  0  0
 13 15  2  0  0  0  0
 15 16  1  0  0  0  0
 16 17  1  0  0  0  0
  8 17  1  0  0  0  0
 18 19  1  0  0  0  0
 18 20  2  0  0  0  0
 19 21  2  0  0  0  0
 20 22  1  0  0  0  0
 21 23  1  0  0  0  0
 22 23  2  0  0  0  0
 17 18  1  0  0  0  0
 17 24  1  0  0  0  0
 24 25  1  0  0  0  0
 24 26  1  0  0  0  0
 24 27  1  0  0  0  0
M  END
> <NMREDATA_VERSION>
1.1

> <NMREDATA_LEVEL>
0

> <NMREDATA_SOLVENT>
DCCl3

> <NMREDATA_TEMPERATURE>
298

> <NMREDATA_FORMULA>
C17H29N4O4PRh

> <NMREDATA_SMILES>
O/N=C(/C(=N/O[Rh](P(C)(C)C)(c1ccccc1)O/N=C(/C(=N/O)/C)\C)/C)\C

> <NMREDATA_ASSIGNMENT>
Rh17, 2109.00, 17

> <NMREDATA_1D_103Rh>
2109.00, L=Rh17

$$$$

  ACD/LABS03252415542D

 27 28  0  0  0  0  0  0  0  0  1 V2000
   11.1686  -11.0938    0.0000 C    0  0  0  0  0  0  0  0  0  0  0  0
   10.5040  -12.2459    0.0000 N    0  0  0  0  0  0  0  0  0  0  0  0
    9.1743  -12.2473    0.0000 C    0  0  0  0  0  0  0  0  0  0  0  0
   12.4888   -8.7989    0.0000 Rh   0  0  0  0  0  0  0  0  0  0  0  0
   11.1686   -8.7989    0.0000 C    0  0  0  0  0  0  0  0  0  0  0  0
   10.5040   -9.9417    0.0000 C    0  0  0  0  0  0  0  0  0  0  0  0
   10.5040   -7.6560    0.0000 C    0  0  0  0  0  0  0  0  0  0  0  0
    9.1749   -9.9417    0.0000 C    0  0  0  0  0  0  0  0  0  0  0  0
    9.1749   -7.6560    0.0000 C    0  0  0  0  0  0  0  0  0  0  0  0
    8.5100   -8.7989    0.0000 C    0  0  0  0  0  0  0  0  0  0  0  0
   11.1686   -6.5039    0.0000 C    0  0  0  0  0  0  0  0  0  0  0  0
   10.5040   -5.3519    0.0000 N    0  0  0  0  0  0  0  0  0  0  0  0
    9.1743   -5.3504    0.0000 C    0  0  0  0  0  0  0  0  0  0  0  0
   13.8090   -6.5039    0.0000 C    0  0  0  0  0  0  0  0  0  0  0  0
   14.4736   -5.3519    0.0000 N    0  0  0  0  0  0  0  0  0  0  0  0
   15.8033   -5.3504    0.0000 C    0  0  0  0  0  0  0  0  0  0  0  0
   13.8179   -8.7989    0.0000 C    0  0  0  0  0  0  0  0  0  0  0  0
   14.4736   -7.6560    0.0000 C    0  0  0  0  0  0  0  0  0  0  0  0
   14.4825   -9.9417    0.0000 C    0  0  0  0  0  0  0  0  0  0  0  0
   15.8027   -7.6560    0.0000 C    0  0  0  0  0  0  0  0  0  0  0  0
   15.8027   -9.9417    0.0000 C    0  0  0  0  0  0  0  0  0  0  0  0
   16.4676   -8.7989    0.0000 C    0  0  0  0  0  0  0  0  0  0  0  0
   13.8179  -11.0938    0.0000 C    0  0  0  0  0  0  0  0  0  0  0  0
   14.4825  -12.2459    0.0000 N    0  0  0  0  0  0  0  0  0  0  0  0
   15.8122  -12.2473    0.0000 C    0  0  0  0  0  0  0  0  0  0  0  0
   12.4888  -10.1280    0.0000 Cl   0  0  0  0  0  0  0  0  0  0  0  0
   12.4888   -7.4697    0.0000 Cl   0  0  0  0  0  0  0  0  0  0  0  0
  1  2  2  0  0  0  0
  2  3  1  0  0  0  0
  5  6  1  0  0  0  0
  5  7  2  0  0  0  0
  6  8  2  0  0  0  0
  7  9  1  0  0  0  0
  8 10  1  0  0  0  0
  9 10  2  0  0  0  0
  4  5  1  0  0  0  0
  7 11  1  0  0  0  0
 11 12  2  0  0  0  0
 12 13  1  0  0  0  0
  1  6  1  0  0  0  0
 14 15  2  0  0  0  0
 15 16  1  0  0  0  0
 17 18  1  0  0  0  0
 17 19  2  0  0  0  0
 18 20  2  0  0  0  0
 19 21  1  0  0  0  0
 20 22  1  0  0  0  0
 21 22  2  0  0  0  0
 19 23  1  0  0  0  0
 23 24  2  0  0  0  0
 24 25  1  0  0  0  0
 14 18  1  0  0  0  0
  4 17  1  0  0  0  0
  4 26  1  0  0  0  0
  4 27  1  0  0  0  0
M  END
> <NMREDATA_VERSION>
1.1

> <NMREDATA_LEVEL>
0

> <NMREDATA_SOLVENT>
CD3OD

> <NMREDATA_TEMPERATURE>
298

> <NMREDATA_FORMULA>
C20H22Cl2N4Rh

> <NMREDATA_SMILES>
C/N=C\c1cccc(c1[Rh](c1c(cccc1/C=N\C)/C=N\C)(Cl)Cl)/C=N\C

> <NMREDATA_ASSIGNMENT>
Rh4, 3888.00, 4

> <NMREDATA_1D_103Rh>
3888.00, L=Rh4

$$$$

  ACD/LABS03252415552D

 35 36  0  0  0  0  0  0  0  0  1 V2000
   11.1686  -11.0938    0.0000 C    0  0  0  0  0  0  0  0  0  0  0  0
   10.5040  -12.2459    0.0000 N    0  0  0  0  0  0  0  0  0  0  0  0
   12.4888   -8.7989    0.0000 Rh   0  0  0  0  0  0  0  0  0  0  0  0
   11.1686   -8.7989    0.0000 C    0  0  0  0  0  0  0  0  0  0  0  0
   10.5040   -9.9417    0.0000 C    0  0  0  0  0  0  0  0  0  0  0  0
   10.5040   -7.6560    0.0000 C    0  0  0  0  0  0  0  0  0  0  0  0
    9.1749   -9.9417    0.0000 C    0  0  0  0  0  0  0  0  0  0  0  0
    9.1749   -7.6560    0.0000 C    0  0  0  0  0  0  0  0  0  0  0  0
    8.5100   -8.7989    0.0000 C    0  0  0  0  0  0  0  0  0  0  0  0
   11.1686   -6.5039    0.0000 C    0  0  0  0  0  0  0  0  0  0  0  0
   10.5040   -5.3519    0.0000 N    0  0  0  0  0  0  0  0  0  0  0  0
   13.8090   -6.5039    0.0000 C    0  0  0  0  0  0  0  0  0  0  0  0
   14.4736   -5.3519    0.0000 N    0  0  0  0  0  0  0  0  0  0  0  0
   13.8179   -8.7989    0.0000 C    0  0  0  0  0  0  0  0  0  0  0  0
   14.4736   -7.6560    0.0000 C    0  0  0  0  0  0  0  0  0  0  0  0
   14.4825   -9.9417    0.0000 C    0  0  0  0  0  0  0  0  0  0  0  0
   15.8027   -7.6560    0.0000 C    0  0  0  0  0  0  0  0  0  0  0  0
   15.8027   -9.9417    0.0000 C    0  0  0  0  0  0  0  0  0  0  0  0
   16.4676   -8.7989    0.0000 C    0  0  0  0  0  0  0  0  0  0  0  0
   13.8179  -11.0938    0.0000 C    0  0  0  0  0  0  0  0  0  0  0  0
   14.4825  -12.2459    0.0000 N    0  0  0  0  0  0  0  0  0  0  0  0
   12.4888  -10.1280    0.0000 Cl   0  0  0  0  0  0  0  0  0  0  0  0
   12.4888   -7.4697    0.0000 Cl   0  0  0  0  0  0  0  0  0  0  0  0
   15.8036   -5.3513    0.0000 C    0  0  0  0  0  0  0  0  0  0  0  0
   16.4682   -4.1992    0.0000 C    0  0  0  0  0  0  0  0  0  0  0  0
   16.4690   -6.5029    0.0000 C    0  0  0  0  0  0  0  0  0  0  0  0
   11.1694   -4.2003    0.0000 C    0  0  0  0  0  0  0  0  0  0  0  0
   10.5048   -3.0482    0.0000 C    0  0  0  0  0  0  0  0  0  0  0  0
   12.4994   -4.2008    0.0000 C    0  0  0  0  0  0  0  0  0  0  0  0
   13.8171  -13.3974    0.0000 C    0  0  0  0  0  0  0  0  0  0  0  0
   14.4817  -14.5496    0.0000 C    0  0  0  0  0  0  0  0  0  0  0  0
   12.4871  -13.3970    0.0000 C    0  0  0  0  0  0  0  0  0  0  0  0
    9.1740  -12.2464    0.0000 C    0  0  0  0  0  0  0  0  0  0  0  0
    8.5094  -13.3986    0.0000 C    0  0  0  0  0  0  0  0  0  0  0  0
    8.5086  -11.0948    0.0000 C    0  0  0  0  0  0  0  0  0  0  0  0
  1  2  2  0  0  0  0
  4  5  1  0  0  0  0
  4  6  2  0  0  0  0
  5  7  2  0  0  0  0
  6  8  1  0  0  0  0
  7  9  1  0  0  0  0
  8  9  2  0  0  0  0
  3  4  1  0  0  0  0
  6 10  1  0  0  0  0
 10 11  2  0  0  0  0
  1  5  1  0  0  0  0
 12 13  2  0  0  0  0
 14 15  1  0  0  0  0
 14 16  2  0  0  0  0
 15 17  2  0  0  0  0
 16 18  1  0  0  0  0
 17 19  1  0  0  0  0
 18 19  2  0  0  0  0
 16 20  1  0  0  0  0
 20 21  2  0  0  0  0
 12 15  1  0  0  0  0
  3 14  1  0  0  0  0
  3 22  1  0  0  0  0
  3 23  1  0  0  0  0
 24 25  1  0  0  0  0
 24 26  1  0  0  0  0
 13 24  1  0  0  0  0
 27 28  1  0  0  0  0
 27 29  1  0  0  0  0
 11 27  1  0  0  0  0
 30 31  1  0  0  0  0
 30 32  1  0  0  0  0
 21 30  1  0  0  0  0
 33 34  1  0  0  0  0
 33 35  1  0  0  0  0
  2 33  1  0  0  0  0
M  END
> <NMREDATA_VERSION>
1.1

> <NMREDATA_LEVEL>
0

> <NMREDATA_SOLVENT>
CD3OD

> <NMREDATA_TEMPERATURE>
298

> <NMREDATA_FORMULA>
C28H38Cl2N4Rh

> <NMREDATA_SMILES>
CC(/N=C\c1cccc(c1[Rh](c1c(cccc1/C=N\C(C)C)/C=N/C(C)C)(Cl)Cl)/C=N/C(C)C)C

> <NMREDATA_ASSIGNMENT>
Rh3, 4185.00, 3

> <NMREDATA_1D_103Rh>
4185.00, L=Rh3

$$$$

  ACD/LABS03252415552D

 39 40  0  0  0  0  0  0  0  0  1 V2000
   11.1686  -11.0938    0.0000 C    0  0  0  0  0  0  0  0  0  0  0  0
   10.5040  -12.2459    0.0000 N    0  0  0  0  0  0  0  0  0  0  0  0
   12.4888   -8.7989    0.0000 Rh   0  0  0  0  0  0  0  0  0  0  0  0
   11.1686   -8.7989    0.0000 C    0  0  0  0  0  0  0  0  0  0  0  0
   10.5040   -9.9417    0.0000 C    0  0  0  0  0  0  0  0  0  0  0  0
   10.5040   -7.6560    0.0000 C    0  0  0  0  0  0  0  0  0  0  0  0
    9.1749   -9.9417    0.0000 C    0  0  0  0  0  0  0  0  0  0  0  0
    9.1749   -7.6560    0.0000 C    0  0  0  0  0  0  0  0  0  0  0  0
    8.5100   -8.7989    0.0000 C    0  0  0  0  0  0  0  0  0  0  0  0
   11.1686   -6.5039    0.0000 C    0  0  0  0  0  0  0  0  0  0  0  0
   10.5040   -5.3519    0.0000 N    0  0  0  0  0  0  0  0  0  0  0  0
   13.8090   -6.5039    0.0000 C    0  0  0  0  0  0  0  0  0  0  0  0
   14.4736   -5.3519    0.0000 N    0  0  0  0  0  0  0  0  0  0  0  0
   13.8179   -8.7989    0.0000 C    0  0  0  0  0  0  0  0  0  0  0  0
   14.4736   -7.6560    0.0000 C    0  0  0  0  0  0  0  0  0  0  0  0
   14.4825   -9.9417    0.0000 C    0  0  0  0  0  0  0  0  0  0  0  0
   15.8027   -7.6560    0.0000 C    0  0  0  0  0  0  0  0  0  0  0  0
   15.8027   -9.9417    0.0000 C    0  0  0  0  0  0  0  0  0  0  0  0
   16.4676   -8.7989    0.0000 C    0  0  0  0  0  0  0  0  0  0  0  0
   13.8179  -11.0938    0.0000 C    0  0  0  0  0  0  0  0  0  0  0  0
   14.4825  -12.2459    0.0000 N    0  0  0  0  0  0  0  0  0  0  0  0
   12.4888  -10.1280    0.0000 Cl   0  0  0  0  0  0  0  0  0  0  0  0
   12.4888   -7.4697    0.0000 Cl   0  0  0  0  0  0  0  0  0  0  0  0
   15.8036   -5.3514    0.0000 C    0  0  0  0  0  0  0  0  0  0  0  0
   15.8041   -6.6814    0.0000 C    0  0  0  0  0  0  0  0  0  0  0  0
   15.8031   -4.0214    0.0000 C    0  0  0  0  0  0  0  0  0  0  0  0
   17.1336   -5.3509    0.0000 C    0  0  0  0  0  0  0  0  0  0  0  0
   11.1695   -4.2003    0.0000 C    0  0  0  0  0  0  0  0  0  0  0  0
   12.3210   -4.8658    0.0000 C    0  0  0  0  0  0  0  0  0  0  0  0
   10.0179   -3.5349    0.0000 C    0  0  0  0  0  0  0  0  0  0  0  0
   11.8349   -3.0488    0.0000 C    0  0  0  0  0  0  0  0  0  0  0  0
   13.8171  -13.3974    0.0000 C    0  0  0  0  0  0  0  0  0  0  0  0
   12.6655  -12.7320    0.0000 C    0  0  0  0  0  0  0  0  0  0  0  0
   14.9686  -14.0629    0.0000 C    0  0  0  0  0  0  0  0  0  0  0  0
   13.1516  -14.5490    0.0000 C    0  0  0  0  0  0  0  0  0  0  0  0
    9.1740  -12.2464    0.0000 C    0  0  0  0  0  0  0  0  0  0  0  0
    9.1735  -10.9164    0.0000 C    0  0  0  0  0  0  0  0  0  0  0  0
    9.1745  -13.5764    0.0000 C    0  0  0  0  0  0  0  0  0  0  0  0
    7.8440  -12.2469    0.0000 C    0  0  0  0  0  0  0  0  0  0  0  0
  1  2  2  0  0  0  0
  4  5  1  0  0  0  0
  4  6  2  0  0  0  0
  5  7  2  0  0  0  0
  6  8  1  0  0  0  0
  7  9  1  0  0  0  0
  8  9  2  0  0  0  0
  3  4  1  0  0  0  0
  6 10  1  0  0  0  0
 10 11  2  0  0  0  0
  1  5  1  0  0  0  0
 12 13  2  0  0  0  0
 14 15  1  0  0  0  0
 14 16  2  0  0  0  0
 15 17  2  0  0  0  0
 16 18  1  0  0  0  0
 17 19  1  0  0  0  0
 18 19  2  0  0  0  0
 16 20  1  0  0  0  0
 20 21  2  0  0  0  0
 12 15  1  0  0  0  0
  3 14  1  0  0  0  0
  3 22  1  0  0  0  0
  3 23  1  0  0  0  0
 24 25  1  0  0  0  0
 24 26  1  0  0  0  0
 24 27  1  0  0  0  0
 13 24  1  0  0  0  0
 28 29  1  0  0  0  0
 28 30  1  0  0  0  0
 28 31  1  0  0  0  0
 11 28  1  0  0  0  0
 32 33  1  0  0  0  0
 32 34  1  0  0  0  0
 32 35  1  0  0  0  0
 21 32  1  0  0  0  0
 36 37  1  0  0  0  0
 36 38  1  0  0  0  0
 36 39  1  0  0  0  0
  2 36  1  0  0  0  0
M  END
> <NMREDATA_VERSION>
1.1

> <NMREDATA_LEVEL>
0

> <NMREDATA_SOLVENT>
CD3OD

> <NMREDATA_TEMPERATURE>
298

> <NMREDATA_FORMULA>
C32H46Cl2N4Rh

> <NMREDATA_SMILES>
CC(/N=C\c1cccc(c1[Rh](c1c(cccc1/C=N\C(C)(C)C)/C=N/C(C)(C)C)(Cl)Cl)/C=N/C(C)(C)C)(C)C

> <NMREDATA_ASSIGNMENT>
Rh3, 4587.00, 3

> <NMREDATA_1D_103Rh>
4587.00, L=Rh3

$$$$

  ACD/LABS03252415562D

 27 28  0  0  0  0  0  0  0  0  1 V2000
   11.1686  -11.0938    0.0000 C    0  0  0  0  0  0  0  0  0  0  0  0
   10.5040  -12.2459    0.0000 N    0  0  0  0  0  0  0  0  0  0  0  0
   12.4888   -8.7989    0.0000 Rh   0  0  0  0  0  0  0  0  0  0  0  0
   11.1686   -8.7989    0.0000 C    0  0  0  0  0  0  0  0  0  0  0  0
   10.5040   -9.9417    0.0000 C    0  0  0  0  0  0  0  0  0  0  0  0
   10.5040   -7.6560    0.0000 C    0  0  0  0  0  0  0  0  0  0  0  0
    9.1749   -9.9417    0.0000 C    0  0  0  0  0  0  0  0  0  0  0  0
    9.1749   -7.6560    0.0000 C    0  0  0  0  0  0  0  0  0  0  0  0
    8.5100   -8.7989    0.0000 C    0  0  0  0  0  0  0  0  0  0  0  0
   11.1686   -6.5039    0.0000 C    0  0  0  0  0  0  0  0  0  0  0  0
   10.5040   -5.3519    0.0000 N    0  0  0  0  0  0  0  0  0  0  0  0
   13.8090   -6.5039    0.0000 C    0  0  0  0  0  0  0  0  0  0  0  0
   14.4736   -5.3519    0.0000 N    0  0  0  0  0  0  0  0  0  0  0  0
   13.8179   -8.7989    0.0000 C    0  0  0  0  0  0  0  0  0  0  0  0
   14.4736   -7.6560    0.0000 C    0  0  0  0  0  0  0  0  0  0  0  0
   14.4825   -9.9417    0.0000 C    0  0  0  0  0  0  0  0  0  0  0  0
   15.8027   -7.6560    0.0000 C    0  0  0  0  0  0  0  0  0  0  0  0
   15.8027   -9.9417    0.0000 C    0  0  0  0  0  0  0  0  0  0  0  0
   16.4676   -8.7989    0.0000 C    0  0  0  0  0  0  0  0  0  0  0  0
   13.8179  -11.0938    0.0000 C    0  0  0  0  0  0  0  0  0  0  0  0
   14.4825  -12.2459    0.0000 N    0  0  0  0  0  0  0  0  0  0  0  0
   12.4888  -10.1280    0.0000 Cl   0  0  0  0  0  0  0  0  0  0  0  0
   12.4888   -7.4697    0.0000 Br   0  0  0  0  0  0  0  0  0  0  0  0
   15.9600   -5.2078    0.0000 C    0  0  0  0  0  0  0  0  0  0  0  0
    8.9575   -5.1918    0.0000 C    0  0  0  0  0  0  0  0  0  0  0  0
   16.1843  -12.4187    0.0000 C    0  0  0  0  0  0  0  0  0  0  0  0
    8.7331  -12.2424    0.0000 C    0  0  0  0  0  0  0  0  0  0  0  0
  1  2  2  0  0  0  0
  4  5  1  0  0  0  0
  4  6  2  0  0  0  0
  5  7  2  0  0  0  0
  6  8  1  0  0  0  0
  7  9  1  0  0  0  0
  8  9  2  0  0  0  0
  3  4  1  0  0  0  0
  6 10  1  0  0  0  0
 10 11  2  0  0  0  0
  1  5  1  0  0  0  0
 12 13  2  0  0  0  0
 14 15  1  0  0  0  0
 14 16  2  0  0  0  0
 15 17  2  0  0  0  0
 16 18  1  0  0  0  0
 17 19  1  0  0  0  0
 18 19  2  0  0  0  0
 16 20  1  0  0  0  0
 20 21  2  0  0  0  0
 12 15  1  0  0  0  0
  3 14  1  0  0  0  0
  3 22  1  0  0  0  0
  3 23  1  0  0  0  0
 13 24  1  0  0  0  0
 11 25  1  0  0  0  0
 21 26  1  0  0  0  0
  2 27  1  0  0  0  0
M  END
> <NMREDATA_VERSION>
1.1

> <NMREDATA_LEVEL>
0

> <NMREDATA_SOLVENT>
CD3OD

> <NMREDATA_TEMPERATURE>
298

> <NMREDATA_FORMULA>
C20H22BrClN4Rh

> <NMREDATA_SMILES>
C/N=C\c1cccc(c1[Rh](c1c(cccc1/C=N\C)/C=N\C)(Br)Cl)/C=N\C

> <NMREDATA_ASSIGNMENT>
Rh3, 3733.00, 3

> <NMREDATA_1D_103Rh>
3733.00, L=Rh3

$$$$

  ACD/LABS03252415572D

 35 36  0  0  0  0  0  0  0  0  1 V2000
   11.1686  -11.0938    0.0000 C    0  0  0  0  0  0  0  0  0  0  0  0
   10.5040  -12.2459    0.0000 N    0  0  0  0  0  0  0  0  0  0  0  0
   12.4888   -8.7989    0.0000 Rh   0  0  0  0  0  0  0  0  0  0  0  0
   11.1686   -8.7989    0.0000 C    0  0  0  0  0  0  0  0  0  0  0  0
   10.5040   -9.9417    0.0000 C    0  0  0  0  0  0  0  0  0  0  0  0
   10.5040   -7.6560    0.0000 C    0  0  0  0  0  0  0  0  0  0  0  0
    9.1749   -9.9417    0.0000 C    0  0  0  0  0  0  0  0  0  0  0  0
    9.1749   -7.6560    0.0000 C    0  0  0  0  0  0  0  0  0  0  0  0
    8.5100   -8.7989    0.0000 C    0  0  0  0  0  0  0  0  0  0  0  0
   11.1686   -6.5039    0.0000 C    0  0  0  0  0  0  0  0  0  0  0  0
   10.5040   -5.3519    0.0000 N    0  0  0  0  0  0  0  0  0  0  0  0
   13.8090   -6.5039    0.0000 C    0  0  0  0  0  0  0  0  0  0  0  0
   14.4736   -5.3519    0.0000 N    0  0  0  0  0  0  0  0  0  0  0  0
   13.8179   -8.7989    0.0000 C    0  0  0  0  0  0  0  0  0  0  0  0
   14.4736   -7.6560    0.0000 C    0  0  0  0  0  0  0  0  0  0  0  0
   14.4825   -9.9417    0.0000 C    0  0  0  0  0  0  0  0  0  0  0  0
   15.8027   -7.6560    0.0000 C    0  0  0  0  0  0  0  0  0  0  0  0
   15.8027   -9.9417    0.0000 C    0  0  0  0  0  0  0  0  0  0  0  0
   16.4676   -8.7989    0.0000 C    0  0  0  0  0  0  0  0  0  0  0  0
   13.8179  -11.0938    0.0000 C    0  0  0  0  0  0  0  0  0  0  0  0
   14.4825  -12.2459    0.0000 N    0  0  0  0  0  0  0  0  0  0  0  0
   12.4888  -10.1280    0.0000 Cl   0  0  0  0  0  0  0  0  0  0  0  0
   12.4888   -7.4697    0.0000 Br   0  0  0  0  0  0  0  0  0  0  0  0
   15.8036   -5.3513    0.0000 C    0  0  0  0  0  0  0  0  0  0  0  0
   16.4682   -4.1992    0.0000 C    0  0  0  0  0  0  0  0  0  0  0  0
   16.4690   -6.5029    0.0000 C    0  0  0  0  0  0  0  0  0  0  0  0
   11.1694   -4.2003    0.0000 C    0  0  0  0  0  0  0  0  0  0  0  0
   10.5048   -3.0482    0.0000 C    0  0  0  0  0  0  0  0  0  0  0  0
   12.4994   -4.2008    0.0000 C    0  0  0  0  0  0  0  0  0  0  0  0
   13.8171  -13.3974    0.0000 C    0  0  0  0  0  0  0  0  0  0  0  0
   14.4817  -14.5496    0.0000 C    0  0  0  0  0  0  0  0  0  0  0  0
   12.4871  -13.3970    0.0000 C    0  0  0  0  0  0  0  0  0  0  0  0
    9.1740  -12.2464    0.0000 C    0  0  0  0  0  0  0  0  0  0  0  0
    8.5094  -13.3986    0.0000 C    0  0  0  0  0  0  0  0  0  0  0  0
    8.5086  -11.0948    0.0000 C    0  0  0  0  0  0  0  0  0  0  0  0
  1  2  2  0  0  0  0
  4  5  1  0  0  0  0
  4  6  2  0  0  0  0
  5  7  2  0  0  0  0
  6  8  1  0  0  0  0
  7  9  1  0  0  0  0
  8  9  2  0  0  0  0
  3  4  1  0  0  0  0
  6 10  1  0  0  0  0
 10 11  2  0  0  0  0
  1  5  1  0  0  0  0
 12 13  2  0  0  0  0
 14 15  1  0  0  0  0
 14 16  2  0  0  0  0
 15 17  2  0  0  0  0
 16 18  1  0  0  0  0
 17 19  1  0  0  0  0
 18 19  2  0  0  0  0
 16 20  1  0  0  0  0
 20 21  2  0  0  0  0
 12 15  1  0  0  0  0
  3 14  1  0  0  0  0
  3 22  1  0  0  0  0
  3 23  1  0  0  0  0
 24 25  1  0  0  0  0
 24 26  1  0  0  0  0
 13 24  1  0  0  0  0
 27 28  1  0  0  0  0
 27 29  1  0  0  0  0
 11 27  1  0  0  0  0
 30 31  1  0  0  0  0
 30 32  1  0  0  0  0
 21 30  1  0  0  0  0
 33 34  1  0  0  0  0
 33 35  1  0  0  0  0
  2 33  1  0  0  0  0
M  END
> <NMREDATA_VERSION>
1.1

> <NMREDATA_LEVEL>
0

> <NMREDATA_SOLVENT>
CD3OD

> <NMREDATA_TEMPERATURE>
298

> <NMREDATA_FORMULA>
C28H38BrClN4Rh

> <NMREDATA_SMILES>
CC(/N=C\c1cccc(c1[Rh](c1c(cccc1/C=N\C(C)C)/C=N/C(C)C)(Br)Cl)/C=N/C(C)C)C

> <NMREDATA_ASSIGNMENT>
Rh3, 4027.00, 3

> <NMREDATA_1D_103Rh>
4027.00, L=Rh3

$$$$

  ACD/LABS03252415572D

 39 40  0  0  0  0  0  0  0  0  1 V2000
   11.1686  -11.0938    0.0000 C    0  0  0  0  0  0  0  0  0  0  0  0
   10.5040  -12.2459    0.0000 N    0  0  0  0  0  0  0  0  0  0  0  0
   12.4888   -8.7989    0.0000 Rh   0  0  0  0  0  0  0  0  0  0  0  0
   11.1686   -8.7989    0.0000 C    0  0  0  0  0  0  0  0  0  0  0  0
   10.5040   -9.9417    0.0000 C    0  0  0  0  0  0  0  0  0  0  0  0
   10.5040   -7.6560    0.0000 C    0  0  0  0  0  0  0  0  0  0  0  0
    9.1749   -9.9417    0.0000 C    0  0  0  0  0  0  0  0  0  0  0  0
    9.1749   -7.6560    0.0000 C    0  0  0  0  0  0  0  0  0  0  0  0
    8.5100   -8.7989    0.0000 C    0  0  0  0  0  0  0  0  0  0  0  0
   11.1686   -6.5039    0.0000 C    0  0  0  0  0  0  0  0  0  0  0  0
   10.5040   -5.3519    0.0000 N    0  0  0  0  0  0  0  0  0  0  0  0
   13.8090   -6.5039    0.0000 C    0  0  0  0  0  0  0  0  0  0  0  0
   14.4736   -5.3519    0.0000 N    0  0  0  0  0  0  0  0  0  0  0  0
   13.8179   -8.7989    0.0000 C    0  0  0  0  0  0  0  0  0  0  0  0
   14.4736   -7.6560    0.0000 C    0  0  0  0  0  0  0  0  0  0  0  0
   14.4825   -9.9417    0.0000 C    0  0  0  0  0  0  0  0  0  0  0  0
   15.8027   -7.6560    0.0000 C    0  0  0  0  0  0  0  0  0  0  0  0
   15.8027   -9.9417    0.0000 C    0  0  0  0  0  0  0  0  0  0  0  0
   16.4676   -8.7989    0.0000 C    0  0  0  0  0  0  0  0  0  0  0  0
   13.8179  -11.0938    0.0000 C    0  0  0  0  0  0  0  0  0  0  0  0
   14.4825  -12.2459    0.0000 N    0  0  0  0  0  0  0  0  0  0  0  0
   12.4888  -10.1280    0.0000 Cl   0  0  0  0  0  0  0  0  0  0  0  0
   12.4888   -7.4697    0.0000 Br   0  0  0  0  0  0  0  0  0  0  0  0
   15.8036   -5.3514    0.0000 C    0  0  0  0  0  0  0  0  0  0  0  0
   15.8041   -6.6814    0.0000 C    0  0  0  0  0  0  0  0  0  0  0  0
   15.8031   -4.0214    0.0000 C    0  0  0  0  0  0  0  0  0  0  0  0
   17.1336   -5.3509    0.0000 C    0  0  0  0  0  0  0  0  0  0  0  0
   11.1695   -4.2003    0.0000 C    0  0  0  0  0  0  0  0  0  0  0  0
   12.3210   -4.8658    0.0000 C    0  0  0  0  0  0  0  0  0  0  0  0
   10.0179   -3.5349    0.0000 C    0  0  0  0  0  0  0  0  0  0  0  0
   11.8349   -3.0488    0.0000 C    0  0  0  0  0  0  0  0  0  0  0  0
    9.1740  -12.2464    0.0000 C    0  0  0  0  0  0  0  0  0  0  0  0
    9.1735  -10.9164    0.0000 C    0  0  0  0  0  0  0  0  0  0  0  0
    9.1745  -13.5764    0.0000 C    0  0  0  0  0  0  0  0  0  0  0  0
    7.8440  -12.2469    0.0000 C    0  0  0  0  0  0  0  0  0  0  0  0
   13.8171  -13.3974    0.0000 C    0  0  0  0  0  0  0  0  0  0  0  0
   12.6655  -12.7320    0.0000 C    0  0  0  0  0  0  0  0  0  0  0  0
   14.9686  -14.0629    0.0000 C    0  0  0  0  0  0  0  0  0  0  0  0
   13.1516  -14.5490    0.0000 C    0  0  0  0  0  0  0  0  0  0  0  0
  1  2  2  0  0  0  0
  4  5  1  0  0  0  0
  4  6  2  0  0  0  0
  5  7  2  0  0  0  0
  6  8  1  0  0  0  0
  7  9  1  0  0  0  0
  8  9  2  0  0  0  0
  3  4  1  0  0  0  0
  6 10  1  0  0  0  0
 10 11  2  0  0  0  0
  1  5  1  0  0  0  0
 12 13  2  0  0  0  0
 14 15  1  0  0  0  0
 14 16  2  0  0  0  0
 15 17  2  0  0  0  0
 16 18  1  0  0  0  0
 17 19  1  0  0  0  0
 18 19  2  0  0  0  0
 16 20  1  0  0  0  0
 20 21  2  0  0  0  0
 12 15  1  0  0  0  0
  3 14  1  0  0  0  0
  3 22  1  0  0  0  0
  3 23  1  0  0  0  0
 24 25  1  0  0  0  0
 24 26  1  0  0  0  0
 24 27  1  0  0  0  0
 13 24  1  0  0  0  0
 28 29  1  0  0  0  0
 28 30  1  0  0  0  0
 28 31  1  0  0  0  0
 11 28  1  0  0  0  0
 32 33  1  0  0  0  0
 32 34  1  0  0  0  0
 32 35  1  0  0  0  0
  2 32  1  0  0  0  0
 36 37  1  0  0  0  0
 36 38  1  0  0  0  0
 36 39  1  0  0  0  0
 21 36  1  0  0  0  0
M  END
> <NMREDATA_VERSION>
1.1

> <NMREDATA_LEVEL>
0

> <NMREDATA_SOLVENT>
CD3OD

> <NMREDATA_TEMPERATURE>
298

> <NMREDATA_FORMULA>
C32H46BrClN4Rh

> <NMREDATA_SMILES>
CC(/N=C\c1cccc(c1[Rh](c1c(cccc1/C=N\C(C)(C)C)/C=N/C(C)(C)C)(Br)Cl)/C=N/C(C)(C)C)(C)C

> <NMREDATA_ASSIGNMENT>
Rh3, 4374.00, 3

> <NMREDATA_1D_103Rh>
4374.00, L=Rh3

$$$$

  ACD/LABS03252415582D

 35 36  0  0  0  0  0  0  0  0  1 V2000
   11.1686  -11.0938    0.0000 C    0  0  0  0  0  0  0  0  0  0  0  0
   10.5040  -12.2459    0.0000 N    0  0  0  0  0  0  0  0  0  0  0  0
   12.4888   -8.7989    0.0000 Rh   0  0  0  0  0  0  0  0  0  0  0  0
   11.1686   -8.7989    0.0000 C    0  0  0  0  0  0  0  0  0  0  0  0
   10.5040   -9.9417    0.0000 C    0  0  0  0  0  0  0  0  0  0  0  0
   10.5040   -7.6560    0.0000 C    0  0  0  0  0  0  0  0  0  0  0  0
    9.1749   -9.9417    0.0000 C    0  0  0  0  0  0  0  0  0  0  0  0
    9.1749   -7.6560    0.0000 C    0  0  0  0  0  0  0  0  0  0  0  0
    8.5100   -8.7989    0.0000 C    0  0  0  0  0  0  0  0  0  0  0  0
   11.1686   -6.5039    0.0000 C    0  0  0  0  0  0  0  0  0  0  0  0
   10.5040   -5.3519    0.0000 N    0  0  0  0  0  0  0  0  0  0  0  0
   13.8090   -6.5039    0.0000 C    0  0  0  0  0  0  0  0  0  0  0  0
   14.4736   -5.3519    0.0000 N    0  0  0  0  0  0  0  0  0  0  0  0
   13.8179   -8.7989    0.0000 C    0  0  0  0  0  0  0  0  0  0  0  0
   14.4736   -7.6560    0.0000 C    0  0  0  0  0  0  0  0  0  0  0  0
   14.4825   -9.9417    0.0000 C    0  0  0  0  0  0  0  0  0  0  0  0
   15.8027   -7.6560    0.0000 C    0  0  0  0  0  0  0  0  0  0  0  0
   15.8027   -9.9417    0.0000 C    0  0  0  0  0  0  0  0  0  0  0  0
   16.4676   -8.7989    0.0000 C    0  0  0  0  0  0  0  0  0  0  0  0
   13.8179  -11.0938    0.0000 C    0  0  0  0  0  0  0  0  0  0  0  0
   14.4825  -12.2459    0.0000 N    0  0  0  0  0  0  0  0  0  0  0  0
   12.4888  -10.1280    0.0000 Cl   0  0  0  0  0  0  0  0  0  0  0  0
   12.4888   -7.4697    0.0000 I    0  0  0  0  0  0  0  0  0  0  0  0
   15.8036   -5.3513    0.0000 C    0  0  0  0  0  0  0  0  0  0  0  0
   16.4682   -4.1992    0.0000 C    0  0  0  0  0  0  0  0  0  0  0  0
   16.4690   -6.5029    0.0000 C    0  0  0  0  0  0  0  0  0  0  0  0
   11.1694   -4.2003    0.0000 C    0  0  0  0  0  0  0  0  0  0  0  0
   10.5048   -3.0482    0.0000 C    0  0  0  0  0  0  0  0  0  0  0  0
   12.4994   -4.2008    0.0000 C    0  0  0  0  0  0  0  0  0  0  0  0
   13.8171  -13.3974    0.0000 C    0  0  0  0  0  0  0  0  0  0  0  0
   14.4817  -14.5496    0.0000 C    0  0  0  0  0  0  0  0  0  0  0  0
   12.4871  -13.3970    0.0000 C    0  0  0  0  0  0  0  0  0  0  0  0
    9.1740  -12.2464    0.0000 C    0  0  0  0  0  0  0  0  0  0  0  0
    8.5094  -13.3986    0.0000 C    0  0  0  0  0  0  0  0  0  0  0  0
    8.5086  -11.0948    0.0000 C    0  0  0  0  0  0  0  0  0  0  0  0
  1  2  2  0  0  0  0
  4  5  1  0  0  0  0
  4  6  2  0  0  0  0
  5  7  2  0  0  0  0
  6  8  1  0  0  0  0
  7  9  1  0  0  0  0
  8  9  2  0  0  0  0
  3  4  1  0  0  0  0
  6 10  1  0  0  0  0
 10 11  2  0  0  0  0
  1  5  1  0  0  0  0
 12 13  2  0  0  0  0
 14 15  1  0  0  0  0
 14 16  2  0  0  0  0
 15 17  2  0  0  0  0
 16 18  1  0  0  0  0
 17 19  1  0  0  0  0
 18 19  2  0  0  0  0
 16 20  1  0  0  0  0
 20 21  2  0  0  0  0
 12 15  1  0  0  0  0
  3 14  1  0  0  0  0
  3 22  1  0  0  0  0
  3 23  1  0  0  0  0
 24 25  1  0  0  0  0
 24 26  1  0  0  0  0
 13 24  1  0  0  0  0
 27 28  1  0  0  0  0
 27 29  1  0  0  0  0
 11 27  1  0  0  0  0
 30 31  1  0  0  0  0
 30 32  1  0  0  0  0
 21 30  1  0  0  0  0
 33 34  1  0  0  0  0
 33 35  1  0  0  0  0
  2 33  1  0  0  0  0
M  END
> <NMREDATA_VERSION>
1.1

> <NMREDATA_LEVEL>
0

> <NMREDATA_SOLVENT>
CD3OD

> <NMREDATA_TEMPERATURE>
298

> <NMREDATA_FORMULA>
C28H38ClIN4Rh

> <NMREDATA_SMILES>
CC(/N=C\c1cccc(c1[Rh](c1c(cccc1/C=N\C(C)C)/C=N/C(C)C)(I)Cl)/C=N/C(C)C)C

> <NMREDATA_ASSIGNMENT>
Rh3, 3674.00, 3

> <NMREDATA_1D_103Rh>
3674.00, L=Rh3

$$$$

  ACD/LABS03252415592D

 27 28  0  0  0  0  0  0  0  0  1 V2000
   11.1686  -11.0938    0.0000 C    0  0  0  0  0  0  0  0  0  0  0  0
   10.5040  -12.2459    0.0000 N    0  0  0  0  0  0  0  0  0  0  0  0
   12.4888   -8.7989    0.0000 Rh   0  0  0  0  0  0  0  0  0  0  0  0
   11.1686   -8.7989    0.0000 C    0  0  0  0  0  0  0  0  0  0  0  0
   10.5040   -9.9417    0.0000 C    0  0  0  0  0  0  0  0  0  0  0  0
   10.5040   -7.6560    0.0000 C    0  0  0  0  0  0  0  0  0  0  0  0
    9.1749   -9.9417    0.0000 C    0  0  0  0  0  0  0  0  0  0  0  0
    9.1749   -7.6560    0.0000 C    0  0  0  0  0  0  0  0  0  0  0  0
    8.5100   -8.7989    0.0000 C    0  0  0  0  0  0  0  0  0  0  0  0
   11.1686   -6.5039    0.0000 C    0  0  0  0  0  0  0  0  0  0  0  0
   10.5040   -5.3519    0.0000 N    0  0  0  0  0  0  0  0  0  0  0  0
   13.8090   -6.5039    0.0000 C    0  0  0  0  0  0  0  0  0  0  0  0
   14.4736   -5.3519    0.0000 N    0  0  0  0  0  0  0  0  0  0  0  0
   13.8179   -8.7989    0.0000 C    0  0  0  0  0  0  0  0  0  0  0  0
   14.4736   -7.6560    0.0000 C    0  0  0  0  0  0  0  0  0  0  0  0
   14.4825   -9.9417    0.0000 C    0  0  0  0  0  0  0  0  0  0  0  0
   15.8027   -7.6560    0.0000 C    0  0  0  0  0  0  0  0  0  0  0  0
   15.8027   -9.9417    0.0000 C    0  0  0  0  0  0  0  0  0  0  0  0
   16.4676   -8.7989    0.0000 C    0  0  0  0  0  0  0  0  0  0  0  0
   13.8179  -11.0938    0.0000 C    0  0  0  0  0  0  0  0  0  0  0  0
   14.4825  -12.2459    0.0000 N    0  0  0  0  0  0  0  0  0  0  0  0
   12.4888  -10.1280    0.0000 Br   0  0  0  0  0  0  0  0  0  0  0  0
   12.4888   -7.4697    0.0000 Br   0  0  0  0  0  0  0  0  0  0  0  0
    8.9575   -5.1758    0.0000 C    0  0  0  0  0  0  0  0  0  0  0  0
   15.8639   -5.0155    0.0000 C    0  0  0  0  0  0  0  0  0  0  0  0
   15.8478  -12.9635    0.0000 C    0  0  0  0  0  0  0  0  0  0  0  0
    9.2780  -12.9635    0.0000 C    0  0  0  0  0  0  0  0  0  0  0  0
  1  2  2  0  0  0  0
  4  5  1  0  0  0  0
  4  6  2  0  0  0  0
  5  7  2  0  0  0  0
  6  8  1  0  0  0  0
  7  9  1  0  0  0  0
  8  9  2  0  0  0  0
  3  4  1  0  0  0  0
  6 10  1  0  0  0  0
 10 11  2  0  0  0  0
  1  5  1  0  0  0  0
 12 13  2  0  0  0  0
 14 15  1  0  0  0  0
 14 16  2  0  0  0  0
 15 17  2  0  0  0  0
 16 18  1  0  0  0  0
 17 19  1  0  0  0  0
 18 19  2  0  0  0  0
 16 20  1  0  0  0  0
 20 21  2  0  0  0  0
 12 15  1  0  0  0  0
  3 14  1  0  0  0  0
  3 22  1  0  0  0  0
  3 23  1  0  0  0  0
 11 24  1  0  0  0  0
 13 25  1  0  0  0  0
 21 26  1  0  0  0  0
  2 27  1  0  0  0  0
M  END
> <NMREDATA_VERSION>
1.1

> <NMREDATA_LEVEL>
0

> <NMREDATA_SOLVENT>
CD3OD

> <NMREDATA_TEMPERATURE>
298

> <NMREDATA_FORMULA>
C20H22Br2N4Rh

> <NMREDATA_SMILES>
C/N=C\c1cccc(c1[Rh](c1c(cccc1/C=N\C)/C=N\C)(Br)Br)/C=N\C

> <NMREDATA_ASSIGNMENT>
Rh3, 3569.00, 3

> <NMREDATA_1D_103Rh>
3569.00, L=Rh3

$$$$

  ACD/LABS03252415592D

 35 36  0  0  0  0  0  0  0  0  1 V2000
   11.1686  -11.0938    0.0000 C    0  0  0  0  0  0  0  0  0  0  0  0
   10.5040  -12.2459    0.0000 N    0  0  0  0  0  0  0  0  0  0  0  0
   12.4888   -8.7989    0.0000 Rh   0  0  0  0  0  0  0  0  0  0  0  0
   11.1686   -8.7989    0.0000 C    0  0  0  0  0  0  0  0  0  0  0  0
   10.5040   -9.9417    0.0000 C    0  0  0  0  0  0  0  0  0  0  0  0
   10.5040   -7.6560    0.0000 C    0  0  0  0  0  0  0  0  0  0  0  0
    9.1749   -9.9417    0.0000 C    0  0  0  0  0  0  0  0  0  0  0  0
    9.1749   -7.6560    0.0000 C    0  0  0  0  0  0  0  0  0  0  0  0
    8.5100   -8.7989    0.0000 C    0  0  0  0  0  0  0  0  0  0  0  0
   11.1686   -6.5039    0.0000 C    0  0  0  0  0  0  0  0  0  0  0  0
   10.5040   -5.3519    0.0000 N    0  0  0  0  0  0  0  0  0  0  0  0
   13.8090   -6.5039    0.0000 C    0  0  0  0  0  0  0  0  0  0  0  0
   14.4736   -5.3519    0.0000 N    0  0  0  0  0  0  0  0  0  0  0  0
   13.8179   -8.7989    0.0000 C    0  0  0  0  0  0  0  0  0  0  0  0
   14.4736   -7.6560    0.0000 C    0  0  0  0  0  0  0  0  0  0  0  0
   14.4825   -9.9417    0.0000 C    0  0  0  0  0  0  0  0  0  0  0  0
   15.8027   -7.6560    0.0000 C    0  0  0  0  0  0  0  0  0  0  0  0
   15.8027   -9.9417    0.0000 C    0  0  0  0  0  0  0  0  0  0  0  0
   16.4676   -8.7989    0.0000 C    0  0  0  0  0  0  0  0  0  0  0  0
   13.8179  -11.0938    0.0000 C    0  0  0  0  0  0  0  0  0  0  0  0
   14.4825  -12.2459    0.0000 N    0  0  0  0  0  0  0  0  0  0  0  0
   12.4888  -10.1280    0.0000 Br   0  0  0  0  0  0  0  0  0  0  0  0
   12.4888   -7.4697    0.0000 Br   0  0  0  0  0  0  0  0  0  0  0  0
   15.8036   -5.3513    0.0000 C    0  0  0  0  0  0  0  0  0  0  0  0
   16.4682   -4.1992    0.0000 C    0  0  0  0  0  0  0  0  0  0  0  0
   16.4690   -6.5029    0.0000 C    0  0  0  0  0  0  0  0  0  0  0  0
   11.1694   -4.2003    0.0000 C    0  0  0  0  0  0  0  0  0  0  0  0
   10.5048   -3.0482    0.0000 C    0  0  0  0  0  0  0  0  0  0  0  0
   12.4994   -4.2008    0.0000 C    0  0  0  0  0  0  0  0  0  0  0  0
   13.8171  -13.3974    0.0000 C    0  0  0  0  0  0  0  0  0  0  0  0
   14.4817  -14.5496    0.0000 C    0  0  0  0  0  0  0  0  0  0  0  0
   12.4871  -13.3970    0.0000 C    0  0  0  0  0  0  0  0  0  0  0  0
    9.1740  -12.2464    0.0000 C    0  0  0  0  0  0  0  0  0  0  0  0
    8.5094  -13.3986    0.0000 C    0  0  0  0  0  0  0  0  0  0  0  0
    8.5086  -11.0948    0.0000 C    0  0  0  0  0  0  0  0  0  0  0  0
  1  2  2  0  0  0  0
  4  5  1  0  0  0  0
  4  6  2  0  0  0  0
  5  7  2  0  0  0  0
  6  8  1  0  0  0  0
  7  9  1  0  0  0  0
  8  9  2  0  0  0  0
  3  4  1  0  0  0  0
  6 10  1  0  0  0  0
 10 11  2  0  0  0  0
  1  5  1  0  0  0  0
 12 13  2  0  0  0  0
 14 15  1  0  0  0  0
 14 16  2  0  0  0  0
 15 17  2  0  0  0  0
 16 18  1  0  0  0  0
 17 19  1  0  0  0  0
 18 19  2  0  0  0  0
 16 20  1  0  0  0  0
 20 21  2  0  0  0  0
 12 15  1  0  0  0  0
  3 14  1  0  0  0  0
  3 22  1  0  0  0  0
  3 23  1  0  0  0  0
 24 25  1  0  0  0  0
 24 26  1  0  0  0  0
 13 24  1  0  0  0  0
 27 28  1  0  0  0  0
 27 29  1  0  0  0  0
 11 27  1  0  0  0  0
 30 31  1  0  0  0  0
 30 32  1  0  0  0  0
 21 30  1  0  0  0  0
 33 34  1  0  0  0  0
 33 35  1  0  0  0  0
  2 33  1  0  0  0  0
M  END
> <NMREDATA_VERSION>
1.1

> <NMREDATA_LEVEL>
0

> <NMREDATA_SOLVENT>
CD3OD

> <NMREDATA_TEMPERATURE>
298

> <NMREDATA_FORMULA>
C28H38Br2N4Rh

> <NMREDATA_SMILES>
CC(/N=C\c1cccc(c1[Rh](c1c(cccc1/C=N\C(C)C)/C=N/C(C)C)(Br)Br)/C=N/C(C)C)C

> <NMREDATA_ASSIGNMENT>
Rh3, 3862.00, 3

> <NMREDATA_1D_103Rh>
3862.00, L=Rh3

$$$$

  ACD/LABS03252416002D

 39 40  0  0  0  0  0  0  0  0  1 V2000
   11.1686  -11.0938    0.0000 C    0  0  0  0  0  0  0  0  0  0  0  0
   10.5040  -12.2459    0.0000 N    0  0  0  0  0  0  0  0  0  0  0  0
   12.4888   -8.7989    0.0000 Rh   0  0  0  0  0  0  0  0  0  0  0  0
   11.1686   -8.7989    0.0000 C    0  0  0  0  0  0  0  0  0  0  0  0
   10.5040   -9.9417    0.0000 C    0  0  0  0  0  0  0  0  0  0  0  0
   10.5040   -7.6560    0.0000 C    0  0  0  0  0  0  0  0  0  0  0  0
    9.1749   -9.9417    0.0000 C    0  0  0  0  0  0  0  0  0  0  0  0
    9.1749   -7.6560    0.0000 C    0  0  0  0  0  0  0  0  0  0  0  0
    8.5100   -8.7989    0.0000 C    0  0  0  0  0  0  0  0  0  0  0  0
   11.1686   -6.5039    0.0000 C    0  0  0  0  0  0  0  0  0  0  0  0
   10.5040   -5.3519    0.0000 N    0  0  0  0  0  0  0  0  0  0  0  0
   13.8090   -6.5039    0.0000 C    0  0  0  0  0  0  0  0  0  0  0  0
   14.4736   -5.3519    0.0000 N    0  0  0  0  0  0  0  0  0  0  0  0
   13.8179   -8.7989    0.0000 C    0  0  0  0  0  0  0  0  0  0  0  0
   14.4736   -7.6560    0.0000 C    0  0  0  0  0  0  0  0  0  0  0  0
   14.4825   -9.9417    0.0000 C    0  0  0  0  0  0  0  0  0  0  0  0
   15.8027   -7.6560    0.0000 C    0  0  0  0  0  0  0  0  0  0  0  0
   15.8027   -9.9417    0.0000 C    0  0  0  0  0  0  0  0  0  0  0  0
   16.4676   -8.7989    0.0000 C    0  0  0  0  0  0  0  0  0  0  0  0
   13.8179  -11.0938    0.0000 C    0  0  0  0  0  0  0  0  0  0  0  0
   14.4825  -12.2459    0.0000 N    0  0  0  0  0  0  0  0  0  0  0  0
   12.4888  -10.1280    0.0000 Br   0  0  0  0  0  0  0  0  0  0  0  0
   12.4888   -7.4697    0.0000 Br   0  0  0  0  0  0  0  0  0  0  0  0
   15.8036   -5.3514    0.0000 C    0  0  0  0  0  0  0  0  0  0  0  0
   15.8041   -6.6814    0.0000 C    0  0  0  0  0  0  0  0  0  0  0  0
   15.8031   -4.0214    0.0000 C    0  0  0  0  0  0  0  0  0  0  0  0
   17.1336   -5.3509    0.0000 C    0  0  0  0  0  0  0  0  0  0  0  0
   11.1695   -4.2003    0.0000 C    0  0  0  0  0  0  0  0  0  0  0  0
   12.3210   -4.8658    0.0000 C    0  0  0  0  0  0  0  0  0  0  0  0
   10.0179   -3.5349    0.0000 C    0  0  0  0  0  0  0  0  0  0  0  0
   11.8349   -3.0488    0.0000 C    0  0  0  0  0  0  0  0  0  0  0  0
   13.8171  -13.3974    0.0000 C    0  0  0  0  0  0  0  0  0  0  0  0
   12.6655  -12.7320    0.0000 C    0  0  0  0  0  0  0  0  0  0  0  0
   14.9686  -14.0629    0.0000 C    0  0  0  0  0  0  0  0  0  0  0  0
   13.1516  -14.5490    0.0000 C    0  0  0  0  0  0  0  0  0  0  0  0
    9.1740  -12.2464    0.0000 C    0  0  0  0  0  0  0  0  0  0  0  0
    9.1735  -10.9164    0.0000 C    0  0  0  0  0  0  0  0  0  0  0  0
    9.1745  -13.5764    0.0000 C    0  0  0  0  0  0  0  0  0  0  0  0
    7.8440  -12.2469    0.0000 C    0  0  0  0  0  0  0  0  0  0  0  0
  1  2  2  0  0  0  0
  4  5  1  0  0  0  0
  4  6  2  0  0  0  0
  5  7  2  0  0  0  0
  6  8  1  0  0  0  0
  7  9  1  0  0  0  0
  8  9  2  0  0  0  0
  3  4  1  0  0  0  0
  6 10  1  0  0  0  0
 10 11  2  0  0  0  0
  1  5  1  0  0  0  0
 12 13  2  0  0  0  0
 14 15  1  0  0  0  0
 14 16  2  0  0  0  0
 15 17  2  0  0  0  0
 16 18  1  0  0  0  0
 17 19  1  0  0  0  0
 18 19  2  0  0  0  0
 16 20  1  0  0  0  0
 20 21  2  0  0  0  0
 12 15  1  0  0  0  0
  3 14  1  0  0  0  0
  3 22  1  0  0  0  0
  3 23  1  0  0  0  0
 24 25  1  0  0  0  0
 24 26  1  0  0  0  0
 24 27  1  0  0  0  0
 13 24  1  0  0  0  0
 28 29  1  0  0  0  0
 28 30  1  0  0  0  0
 28 31  1  0  0  0  0
 11 28  1  0  0  0  0
 32 33  1  0  0  0  0
 32 34  1  0  0  0  0
 32 35  1  0  0  0  0
 21 32  1  0  0  0  0
 36 37  1  0  0  0  0
 36 38  1  0  0  0  0
 36 39  1  0  0  0  0
  2 36  1  0  0  0  0
M  END
> <NMREDATA_VERSION>
1.1

> <NMREDATA_LEVEL>
0

> <NMREDATA_SOLVENT>
CD3OD

> <NMREDATA_TEMPERATURE>
298

> <NMREDATA_FORMULA>
C32H46Br2N4Rh

> <NMREDATA_SMILES>
CC(/N=C\c1cccc(c1[Rh](c1c(cccc1/C=N\C(C)(C)C)/C=N/C(C)(C)C)(Br)Br)/C=N/C(C)(C)C)(C)C

> <NMREDATA_ASSIGNMENT>
Rh3, 4107.00, 3

> <NMREDATA_1D_103Rh>
4107.00, L=Rh3

$$$$

  ACD/LABS03252416002D

 35 36  0  0  0  0  0  0  0  0  1 V2000
   11.1686  -11.0938    0.0000 C    0  0  0  0  0  0  0  0  0  0  0  0
   10.5040  -12.2459    0.0000 N    0  0  0  0  0  0  0  0  0  0  0  0
   12.4888   -8.7989    0.0000 Rh   0  0  0  0  0  0  0  0  0  0  0  0
   11.1686   -8.7989    0.0000 C    0  0  0  0  0  0  0  0  0  0  0  0
   10.5040   -9.9417    0.0000 C    0  0  0  0  0  0  0  0  0  0  0  0
   10.5040   -7.6560    0.0000 C    0  0  0  0  0  0  0  0  0  0  0  0
    9.1749   -9.9417    0.0000 C    0  0  0  0  0  0  0  0  0  0  0  0
    9.1749   -7.6560    0.0000 C    0  0  0  0  0  0  0  0  0  0  0  0
    8.5100   -8.7989    0.0000 C    0  0  0  0  0  0  0  0  0  0  0  0
   11.1686   -6.5039    0.0000 C    0  0  0  0  0  0  0  0  0  0  0  0
   10.5040   -5.3519    0.0000 N    0  0  0  0  0  0  0  0  0  0  0  0
   13.8090   -6.5039    0.0000 C    0  0  0  0  0  0  0  0  0  0  0  0
   14.4736   -5.3519    0.0000 N    0  0  0  0  0  0  0  0  0  0  0  0
   13.8179   -8.7989    0.0000 C    0  0  0  0  0  0  0  0  0  0  0  0
   14.4736   -7.6560    0.0000 C    0  0  0  0  0  0  0  0  0  0  0  0
   14.4825   -9.9417    0.0000 C    0  0  0  0  0  0  0  0  0  0  0  0
   15.8027   -7.6560    0.0000 C    0  0  0  0  0  0  0  0  0  0  0  0
   15.8027   -9.9417    0.0000 C    0  0  0  0  0  0  0  0  0  0  0  0
   16.4676   -8.7989    0.0000 C    0  0  0  0  0  0  0  0  0  0  0  0
   13.8179  -11.0938    0.0000 C    0  0  0  0  0  0  0  0  0  0  0  0
   14.4825  -12.2459    0.0000 N    0  0  0  0  0  0  0  0  0  0  0  0
   12.4888  -10.1280    0.0000 I    0  0  0  0  0  0  0  0  0  0  0  0
   12.4888   -7.4697    0.0000 I    0  0  0  0  0  0  0  0  0  0  0  0
   15.8036   -5.3513    0.0000 C    0  0  0  0  0  0  0  0  0  0  0  0
   16.4682   -4.1992    0.0000 C    0  0  0  0  0  0  0  0  0  0  0  0
   16.4690   -6.5029    0.0000 C    0  0  0  0  0  0  0  0  0  0  0  0
   11.1694   -4.2003    0.0000 C    0  0  0  0  0  0  0  0  0  0  0  0
   10.5048   -3.0482    0.0000 C    0  0  0  0  0  0  0  0  0  0  0  0
   12.4994   -4.2008    0.0000 C    0  0  0  0  0  0  0  0  0  0  0  0
   13.8171  -13.3974    0.0000 C    0  0  0  0  0  0  0  0  0  0  0  0
   14.4817  -14.5496    0.0000 C    0  0  0  0  0  0  0  0  0  0  0  0
   12.4871  -13.3970    0.0000 C    0  0  0  0  0  0  0  0  0  0  0  0
    9.1740  -12.2464    0.0000 C    0  0  0  0  0  0  0  0  0  0  0  0
    8.5094  -13.3986    0.0000 C    0  0  0  0  0  0  0  0  0  0  0  0
    8.5086  -11.0948    0.0000 C    0  0  0  0  0  0  0  0  0  0  0  0
  1  2  2  0  0  0  0
  4  5  1  0  0  0  0
  4  6  2  0  0  0  0
  5  7  2  0  0  0  0
  6  8  1  0  0  0  0
  7  9  1  0  0  0  0
  8  9  2  0  0  0  0
  3  4  1  0  0  0  0
  6 10  1  0  0  0  0
 10 11  2  0  0  0  0
  1  5  1  0  0  0  0
 12 13  2  0  0  0  0
 14 15  1  0  0  0  0
 14 16  2  0  0  0  0
 15 17  2  0  0  0  0
 16 18  1  0  0  0  0
 17 19  1  0  0  0  0
 18 19  2  0  0  0  0
 16 20  1  0  0  0  0
 20 21  2  0  0  0  0
 12 15  1  0  0  0  0
  3 14  1  0  0  0  0
  3 22  1  0  0  0  0
  3 23  1  0  0  0  0
 24 25  1  0  0  0  0
 24 26  1  0  0  0  0
 13 24  1  0  0  0  0
 27 28  1  0  0  0  0
 27 29  1  0  0  0  0
 11 27  1  0  0  0  0
 30 31  1  0  0  0  0
 30 32  1  0  0  0  0
 21 30  1  0  0  0  0
 33 34  1  0  0  0  0
 33 35  1  0  0  0  0
  2 33  1  0  0  0  0
M  END
> <NMREDATA_VERSION>
1.1

> <NMREDATA_LEVEL>
0

> <NMREDATA_SOLVENT>
CD3OD

> <NMREDATA_TEMPERATURE>
298

> <NMREDATA_FORMULA>
C28H38I2N4Rh

> <NMREDATA_SMILES>
CC(/N=C\c1cccc(c1[Rh](c1c(cccc1/C=N\C(C)C)/C=N/C(C)C)(I)I)/C=N/C(C)C)C

> <NMREDATA_ASSIGNMENT>
Rh3, 3176.00, 3

> <NMREDATA_1D_103Rh>
3176.00, L=Rh3

$$$$

  ACD/LABS03252416042D

 41 45  0  0  0  0  0  0  0  0  1 V2000
    9.5607   -9.4350    0.0000 N    0  0  0  0  0  0  0  0  0  0  0  0
   10.8907   -9.4350    0.0000 C    0  0  0  0  0  0  0  0  0  0  0  0
    8.8957  -10.5868    0.0000 C    0  0  0  0  0  0  0  0  0  0  0  0
   11.5557  -10.5868    0.0000 C    0  0  0  0  0  0  0  0  0  0  0  0
    9.5607  -11.7386    0.0000 C    0  0  0  0  0  0  0  0  0  0  0  0
   10.8907  -11.7386    0.0000 C    0  0  0  0  0  0  0  0  0  0  0  0
   11.5557   -8.2832    0.0000 C    0  0  0  0  0  0  0  0  0  0  0  0
   10.8907   -7.1314    0.0000 C    0  0  0  0  0  0  0  0  0  0  0  0
   12.8857   -8.2832    0.0000 C    0  0  0  0  0  0  0  0  0  0  0  0
   11.5557   -5.9795    0.0000 C    0  0  0  0  0  0  0  0  0  0  0  0
   13.5507   -7.1313    0.0000 N    0  0  0  0  0  0  0  0  0  0  0  0
   12.8857   -5.9795    0.0000 C    0  0  0  0  0  0  0  0  0  0  0  0
   12.8857  -10.5868    0.0000 C    0  0  0  0  0  0  0  0  0  0  0  0
   13.5507   -9.4350    0.0000 C    0  0  0  0  0  0  0  0  0  0  0  0
   13.5507  -11.7386    0.0000 C    0  0  0  0  0  0  0  0  0  0  0  0
   14.8807   -9.4350    0.0000 C    0  0  0  0  0  0  0  0  0  0  0  0
   14.8807  -11.7386    0.0000 N    0  0  0  0  0  0  0  0  0  0  0  0
   15.5457  -10.5868    0.0000 C    0  0  0  0  0  0  0  0  0  0  0  0
   11.5557  -12.8904    0.0000 C    0  0  0  0  0  0  0  0  0  0  0  0
   12.8857  -12.8904    0.0000 C    0  0  0  0  0  0  0  0  0  0  0  0
   10.8907  -14.0422    0.0000 C    0  0  0  0  0  0  0  0  0  0  0  0
   13.5507  -14.0422    0.0000 C    0  0  0  0  0  0  0  0  0  0  0  0
   11.5557  -15.1940    0.0000 C    0  0  0  0  0  0  0  0  0  0  0  0
   12.8857  -15.1940    0.0000 C    0  0  0  0  0  0  0  0  0  0  0  0
   13.5507  -16.3459    0.0000 C    0  0  0  0  0  0  0  0  0  0  0  0
   12.3989  -17.0109    0.0000 C    0  0  0  0  0  0  0  0  0  0  0  0
   14.7025  -15.6809    0.0000 C    0  0  0  0  0  0  0  0  0  0  0  0
   14.2157  -17.4977    0.0000 C    0  0  0  0  0  0  0  0  0  0  0  0
    6.9007   -7.1313    0.0000 C    0  0  0  0  0  0  0  0  0  0  0  0
    7.5657   -8.2832    0.0000 C    0  0  0  0  0  0  0  0  0  0  0  0
    5.5707   -7.1313    0.0000 C    0  0  0  0  0  0  0  0  0  0  0  0
    6.9007   -9.4350    0.0000 C    0  0  0  0  0  0  0  0  0  0  0  0
    4.9057   -8.2832    0.0000 C    0  0  0  0  0  0  0  0  0  0  0  0
    5.5707   -9.4350    0.0000 C    0  0  0  0  0  0  0  0  0  0  0  0
    8.8957   -8.2832    0.0000 Rh   0  0  0  0  0  0  0  0  0  0  0  0
    9.5607   -7.1313    0.0000 Br   0  0  0  0  0  0  0  0  0  0  0  0
    7.5657   -5.9795    0.0000 C    0  0  0  0  0  0  0  0  0  0  0  0
    6.9007   -4.8277    0.0000 N    0  0  0  0  0  0  0  0  0  0  0  0
    7.5657   -3.6759    0.0000 C    0  0  0  0  0  0  0  0  0  0  0  0
    6.9007   -2.5241    0.0000 C    0  0  0  0  0  0  0  0  0  0  0  0
    8.8957   -3.6759    0.0000 C    0  0  0  0  0  0  0  0  0  0  0  0
  1  2  1  0  0  0  0
  1  3  2  0  0  0  0
  2  4  2  0  0  0  0
  3  5  1  0  0  0  0
  4  6  1  0  0  0  0
  5  6  2  0  0  0  0
  7  8  1  0  0  0  0
  7  9  2  0  0  0  0
  8 10  2  0  0  0  0
  9 11  1  0  0  0  0
 10 12  1  0  0  0  0
 11 12  2  0  0  0  0
  2  7  1  0  0  0  0
 13 14  1  0  0  0  0
 13 15  2  0  0  0  0
 14 16  2  0  0  0  0
 15 17  1  0  0  0  0
 16 18  1  0  0  0  0
 17 18  2  0  0  0  0
  4 13  1  0  0  0  0
 19 20  1  0  0  0  0
 19 21  2  0  0  0  0
 20 22  2  0  0  0  0
 21 23  1  0  0  0  0
 22 24  1  0  0  0  0
 23 24  2  0  0  0  0
  6 19  1  0  0  0  0
 25 26  1  0  0  0  0
 25 27  1  0  0  0  0
 25 28  1  0  0  0  0
 24 25  1  0  0  0  0
 29 30  1  0  0  0  0
 29 31  2  0  0  0  0
 30 32  2  0  0  0  0
 31 33  1  0  0  0  0
 32 34  1  0  0  0  0
 33 34  2  0  0  0  0
 35 36  1  0  0  0  0
 30 35  1  0  0  0  0
 29 37  1  0  0  0  0
 37 38  2  0  0  0  0
 39 40  1  0  0  0  0
 39 41  1  0  0  0  0
 38 39  1  0  0  0  0
  1 35  1  0  0  0  0
M  END
> <NMREDATA_VERSION>
1.1

> <NMREDATA_LEVEL>
0

> <NMREDATA_SOLVENT>
CD2Cl2

> <NMREDATA_TEMPERATURE>
298

> <NMREDATA_FORMULA>
C35H36BrN4Rh

> <NMREDATA_SMILES>
CC(/N=C/c1ccccc1[Rh](N1=CC=C(C(=C1c1cccnc1)c1cccnc1)c1ccc(cc1)C(C)(C)C)Br)C

> <NMREDATA_ASSIGNMENT>
Rh35, 3221.00, 35

> <NMREDATA_1D_103Rh>
3221.00, L=Rh35

$$$$

  ACD/LABS03252416042D

 37 41  0  0  0  0  0  0  0  0  1 V2000
    9.5296   -6.5922    0.0000 N    0  0  0  0  0  0  0  0  0  0  0  0
   10.8596   -6.5922    0.0000 C    0  0  0  0  0  0  0  0  0  0  0  0
    8.8646   -7.7440    0.0000 C    0  0  0  0  0  0  0  0  0  0  0  0
   11.5246   -7.7440    0.0000 C    0  0  0  0  0  0  0  0  0  0  0  0
    9.5296   -8.8958    0.0000 C    0  0  0  0  0  0  0  0  0  0  0  0
   10.8596   -8.8958    0.0000 C    0  0  0  0  0  0  0  0  0  0  0  0
   11.5246   -5.4404    0.0000 C    0  0  0  0  0  0  0  0  0  0  0  0
   10.8596   -4.2886    0.0000 C    0  0  0  0  0  0  0  0  0  0  0  0
   12.8546   -5.4404    0.0000 C    0  0  0  0  0  0  0  0  0  0  0  0
   11.5246   -3.1368    0.0000 C    0  0  0  0  0  0  0  0  0  0  0  0
   13.5196   -4.2886    0.0000 N    0  0  0  0  0  0  0  0  0  0  0  0
   12.8546   -3.1368    0.0000 C    0  0  0  0  0  0  0  0  0  0  0  0
   12.8546   -7.7440    0.0000 C    0  0  0  0  0  0  0  0  0  0  0  0
   13.5196   -6.5922    0.0000 C    0  0  0  0  0  0  0  0  0  0  0  0
   13.5196   -8.8958    0.0000 C    0  0  0  0  0  0  0  0  0  0  0  0
   14.8496   -6.5922    0.0000 C    0  0  0  0  0  0  0  0  0  0  0  0
   14.8496   -8.8958    0.0000 N    0  0  0  0  0  0  0  0  0  0  0  0
   15.5146   -7.7440    0.0000 C    0  0  0  0  0  0  0  0  0  0  0  0
   11.5246  -10.0476    0.0000 C    0  0  0  0  0  0  0  0  0  0  0  0
   12.8546  -10.0476    0.0000 C    0  0  0  0  0  0  0  0  0  0  0  0
   10.8596  -11.1995    0.0000 C    0  0  0  0  0  0  0  0  0  0  0  0
   13.5196  -11.1995    0.0000 C    0  0  0  0  0  0  0  0  0  0  0  0
   11.5246  -12.3513    0.0000 C    0  0  0  0  0  0  0  0  0  0  0  0
   12.8546  -12.3513    0.0000 C    0  0  0  0  0  0  0  0  0  0  0  0
   13.5196  -13.5031    0.0000 C    0  0  0  0  0  0  0  0  0  0  0  0
   12.3678  -14.1681    0.0000 C    0  0  0  0  0  0  0  0  0  0  0  0
   14.6714  -12.8381    0.0000 C    0  0  0  0  0  0  0  0  0  0  0  0
   14.1846  -14.6549    0.0000 C    0  0  0  0  0  0  0  0  0  0  0  0
    6.5609   -5.4404    0.0000 C    0  0  0  0  0  0  0  0  0  0  0  0
    7.7128   -6.1054    0.0000 C    0  0  0  0  0  0  0  0  0  0  0  0
    5.4091   -6.1054    0.0000 C    0  0  0  0  0  0  0  0  0  0  0  0
    7.7128   -7.4354    0.0000 C    0  0  0  0  0  0  0  0  0  0  0  0
    5.4091   -7.4354    0.0000 C    0  0  0  0  0  0  0  0  0  0  0  0
    6.5609   -8.1004    0.0000 C    0  0  0  0  0  0  0  0  0  0  0  0
    8.8646   -5.4404    0.0000 Rh   0  0  0  0  0  0  0  0  0  0  0  0
   10.0164   -4.7754    0.0000 Br   0  0  0  0  0  0  0  0  0  0  0  0
    8.1996   -4.2886    0.0000 Br   0  0  0  0  0  0  0  0  0  0  0  0
  1  2  1  0  0  0  0
  1  3  2  0  0  0  0
  2  4  2  0  0  0  0
  3  5  1  0  0  0  0
  4  6  1  0  0  0  0
  5  6  2  0  0  0  0
  7  8  1  0  0  0  0
  7  9  2  0  0  0  0
  8 10  2  0  0  0  0
  9 11  1  0  0  0  0
 10 12  1  0  0  0  0
 11 12  2  0  0  0  0
  2  7  1  0  0  0  0
 13 14  1  0  0  0  0
 13 15  2  0  0  0  0
 14 16  2  0  0  0  0
 15 17  1  0  0  0  0
 16 18  1  0  0  0  0
 17 18  2  0  0  0  0
  4 13  1  0  0  0  0
 19 20  1  0  0  0  0
 19 21  2  0  0  0  0
 20 22  2  0  0  0  0
 21 23  1  0  0  0  0
 22 24  1  0  0  0  0
 23 24  2  0  0  0  0
  6 19  1  0  0  0  0
 25 26  1  0  0  0  0
 25 27  1  0  0  0  0
 25 28  1  0  0  0  0
 24 25  1  0  0  0  0
 29 30  1  0  0  0  0
 29 31  2  0  0  0  0
 30 32  2  0  0  0  0
 31 33  1  0  0  0  0
 32 34  1  0  0  0  0
 33 34  2  0  0  0  0
 35 36  1  0  0  0  0
 30 35  1  0  0  0  0
  1 35  1  0  0  0  0
 35 37  1  0  0  0  0
M  END
> <NMREDATA_VERSION>
1.1

> <NMREDATA_LEVEL>
0

> <NMREDATA_SOLVENT>
CD2Cl2

> <NMREDATA_TEMPERATURE>
298

> <NMREDATA_FORMULA>
C31H29Br2N3Rh

> <NMREDATA_SMILES>
CC(c1ccc(cc1)C1=CC=N(C(=C1c1cccnc1)c1cccnc1)[Rh](c1ccccc1)(Br)Br)(C)C

> <NMREDATA_ASSIGNMENT>
Rh35, 3548.00, 35

> <NMREDATA_1D_103Rh>
3548.00, L=Rh35

$$$$

  ACD/LABS03262411212D

 71 78  0  0  0  0  0  0  0  0  2 V2000
    9.6774  -12.4818    0.0000 C    0  0  0  0  0  0  0  0  0  0  0  0
    9.6700  -13.8175    0.0000 C    0  0  0  0  0  0  0  0  0  0  0  0
    8.5369  -11.8197    0.0000 C    0  0  0  0  0  0  0  0  0  0  0  0
    8.5133  -14.4751    0.0000 C    0  0  0  0  0  0  0  0  0  0  0  0
    7.3800  -12.4769    0.0000 C    0  0  0  0  0  0  0  0  0  0  0  0
    7.3685  -13.8047    0.0000 C    0  0  0  0  0  0  0  0  0  0  0  0
    8.8673  -10.9017    0.0000 C    0  0  0  0  0  0  0  0  0  0  0  0
   10.1811  -10.6756    0.0000 C    0  0  0  0  0  0  0  0  0  0  0  0
    8.0190   -9.8754    0.0000 C    0  0  0  0  0  0  0  0  0  0  0  0
   10.6385   -9.4279    0.0000 C    0  0  0  0  0  0  0  0  0  0  0  0
    8.4841   -8.6233    0.0000 C    0  0  0  0  0  0  0  0  0  0  0  0
    9.7905   -8.4021    0.0000 C    0  0  0  0  0  0  0  0  0  0  0  0
   10.8208  -14.1259    0.0000 C    0  0  0  0  0  0  0  0  0  0  0  0
   11.4917  -12.9808    0.0000 C    0  0  0  0  0  0  0  0  0  0  0  0
   11.4785  -15.2825    0.0000 C    0  0  0  0  0  0  0  0  0  0  0  0
   12.8274  -12.9883    0.0000 C    0  0  0  0  0  0  0  0  0  0  0  0
   12.8142  -15.2900    0.0000 C    0  0  0  0  0  0  0  0  0  0  0  0
   13.4850  -14.1449    0.0000 C    0  0  0  0  0  0  0  0  0  0  0  0
   21.5743   -9.6180    0.0000 C    0  0  0  0  0  0  0  0  0  0  0  0
   20.2596   -9.4347    0.0000 C    0  0  0  0  0  0  0  0  0  0  0  0
   22.0738  -10.8558    0.0000 C    0  0  0  0  0  0  0  0  0  0  0  0
   19.4405  -10.4813    0.0000 C    0  0  0  0  0  0  0  0  0  0  0  0
   21.2464  -11.9066    0.0000 C    0  0  0  0  0  0  0  0  0  0  0  0
   19.9273  -11.7156    0.0000 C    0  0  0  0  0  0  0  0  0  0  0  0
   16.0703   -8.8315    0.0000 Rh   0  3  0  0  0  0  0  0  0  0  0  0
   14.8486   -8.3292    0.0000 H    0  0  0  0  0  0  0  0  0  0  0  0
   16.3032   -5.9530    0.0000 C    0  0  0  0  0  0  0  0  0  0  0  0
   19.9074   -4.2301    0.0000 C    0  0  0  0  0  0  0  0  0  0  0  0
   18.8093   -3.4813    0.0000 C    0  0  0  0  0  0  0  0  0  0  0  0
   19.8049   -5.5597    0.0000 C    0  0  0  0  0  0  0  0  0  0  0  0
   17.6117   -4.0503    0.0000 C    0  0  0  0  0  0  0  0  0  0  0  0
   18.5989   -6.1329    0.0000 C    0  0  0  0  0  0  0  0  0  0  0  0
   17.5085   -5.3796    0.0000 C    0  0  0  0  0  0  0  0  0  0  0  0
   15.3530   -5.0161    0.0000 N    0  0  0  0  0  0  0  0  0  0  0  0
   14.0748   -5.3752    0.0000 C    0  0  0  0  0  0  0  0  0  0  0  0
   13.7431   -6.6627    0.0000 N    0  0  0  0  0  0  0  0  0  0  0  0
   13.1215   -4.4508    0.0000 C    0  0  0  0  0  0  0  0  0  0  0  0
   12.4653   -7.0215    0.0000 C    0  0  0  0  0  0  0  0  0  0  0  0
   11.8387   -4.8018    0.0000 C    0  0  0  0  0  0  0  0  0  0  0  0
   11.5197   -6.0927    0.0000 C    0  0  0  0  0  0  0  0  0  0  0  0
   13.4489   -3.1557    0.0000 C    0  0  0  0  0  0  0  0  0  0  0  0
   10.8341  -11.8242    0.0000 P    0  0  0  0  0  0  0  0  0  0  0  0
   16.5622  -10.0737    0.0000 P    0  0  0  0  0  0  0  0  0  0  0  0
   11.7088  -11.3706    0.0000 C    0  0  0  0  0  0  0  0  0  0  0  0
   13.0452  -11.3256    0.0000 C    0  0  0  0  0  0  0  0  0  0  0  0
   11.0177  -10.2440    0.0000 C    0  0  0  0  0  0  0  0  0  0  0  0
   13.6705  -10.1555    0.0000 C    0  0  0  0  0  0  0  0  0  0  0  0
   11.6427   -9.0734    0.0000 C    0  0  0  0  0  0  0  0  0  0  0  0
   12.9714   -9.0335    0.0000 C    0  0  0  0  0  0  0  0  0  0  0  0
   18.0458  -13.3349    0.0000 C    0  0  0  0  0  0  0  0  0  0  0  0
   18.0057  -12.0058    0.0000 C    0  0  0  0  0  0  0  0  0  0  0  0
   16.9156  -14.0383    0.0000 C    0  0  0  0  0  0  0  0  0  0  0  0
   16.8312  -11.3729    0.0000 C    0  0  0  0  0  0  0  0  0  0  0  0
   15.7491  -13.4007    0.0000 C    0  0  0  0  0  0  0  0  0  0  0  0
   15.7012  -12.0767    0.0000 C    0  0  0  0  0  0  0  0  0  0  0  0
   21.1063   -3.6544    0.0000 N    0  3  0  0  0  0  0  0  0  0  0  0
   22.2044   -4.4048    0.0000 O    0  5  0  0  0  0  0  0  0  0  0  0
   21.2072   -2.3282    0.0000 O    0  0  0  0  0  0  0  0  0  0  0  0
   17.3857   -8.6352    0.0000 N    0  0  0  0  0  0  0  0  0  0  0  0
   18.7012   -8.4389    0.0000 C    0  0  0  0  0  0  0  0  0  0  0  0
   20.0166   -8.2426    0.0000 C    0  0  0  0  0  0  0  0  0  0  0  0
   20.5043   -7.0053    0.0000 C    0  0  0  0  0  0  0  0  0  0  0  0
   20.8444   -9.2837    0.0000 C    0  0  0  0  0  0  0  0  0  0  0  0
   21.8198   -6.8090    0.0000 C    0  0  0  0  0  0  0  0  0  0  0  0
   22.1598   -9.0874    0.0000 C    0  0  0  0  0  0  0  0  0  0  0  0
   22.6475   -7.8501    0.0000 C    0  0  0  0  0  0  0  0  0  0  0  0
   27.0327   -7.3150    0.0000 B    0  5  0  0  0  0  0  0  0  0  0  0
   25.8670   -6.6420    0.0000 F    0  0  0  0  0  0  0  0  0  0  0  0
   27.7057   -6.1493    0.0000 F    0  0  0  0  0  0  0  0  0  0  0  0
   26.3596   -8.4807    0.0000 F    0  0  0  0  0  0  0  0  0  0  0  0
   28.1984   -7.9880    0.0000 F    0  0  0  0  0  0  0  0  0  0  0  0
  1  2  1  0  0  0  0
  1  3  2  0  0  0  0
  2  4  2  0  0  0  0
  3  5  1  0  0  0  0
  4  6  1  0  0  0  0
  5  6  2  0  0  0  0
  7  8  1  0  0  0  0
  7  9  2  0  0  0  0
  8 10  2  0  0  0  0
  9 11  1  0  0  0  0
 10 12  1  0  0  0  0
 11 12  2  0  0  0  0
 13 14  1  0  0  0  0
 13 15  2  0  0  0  0
 14 16  2  0  0  0  0
 15 17  1  0  0  0  0
 16 18  1  0  0  0  0
 17 18  2  0  0  0  0
 19 20  1  0  0  0  0
 19 21  2  0  0  0  0
 20 22  2  0  0  0  0
 21 23  1  0  0  0  0
 22 24  1  0  0  0  0
 23 24  2  0  0  0  0
 25 26  1  0  0  0  0
 25 27  1  0  0  0  0
 28 29  1  0  0  0  0
 28 30  2  0  0  0  0
 29 31  2  0  0  0  0
 30 32  1  0  0  0  0
 31 33  1  0  0  0  0
 32 33  2  0  0  0  0
 27 33  1  0  0  0  0
 27 34  2  0  0  0  0
 35 36  1  0  0  0  0
 35 37  2  0  0  0  0
 36 38  2  0  0  0  0
 37 39  1  0  0  0  0
 38 40  1  0  0  0  0
 39 40  2  0  0  0  0
 34 35  1  0  0  0  0
 37 41  1  0  0  0  0
 25 42  1  0  0  0  0
 25 43  1  0  0  0  0
 22 43  1  0  0  0  0
 44 45  1  0  0  0  0
 44 46  2  0  0  0  0
 45 47  2  0  0  0  0
 46 48  1  0  0  0  0
 47 49  1  0  0  0  0
 48 49  2  0  0  0  0
 43 47  1  0  0  0  0
 50 51  1  0  0  0  0
 50 52  2  0  0  0  0
 51 53  2  0  0  0  0
 52 54  1  0  0  0  0
 53 55  1  0  0  0  0
 54 55  2  0  0  0  0
 43 53  1  0  0  0  0
 14 42  1  0  0  0  0
  8 42  1  0  0  0  0
  1 42  1  0  0  0  0
 56 57  1  0  0  0  0
 56 58  2  0  0  0  0
 28 56  1  0  0  0  0
 59 60  3  0  0  0  0
 25 59  1  0  0  0  0
 61 62  1  0  0  0  0
 61 63  1  0  0  0  0
 62 64  1  0  0  0  0
 63 65  1  0  0  0  0
 64 66  1  0  0  0  0
 65 66  1  0  0  0  0
 60 61  1  0  0  0  0
 67 68  1  0  0  0  0
 67 69  1  0  0  0  0
 67 70  1  0  0  0  0
 67 71  1  0  0  0  0
M  END
> <NMREDATA_VERSION>
1.1

> <NMREDATA_LEVEL>
0

> <NMREDATA_SOLVENT>
DCCl3

> <NMREDATA_FORMULA>
C56H57BF4N4O2P2Rh

> <NMREDATA_SMILES>
F[B](F)(F)F.Cc1cccnc1/N=C(\[RhH](P(c1ccccc1)(c1ccccc1)c1ccccc1)(P(c1ccccc1)(c1ccccc1)c1ccccc1)N#CC1CCCCC1)/c1ccc(cc1)N(=O)O

> <NMREDATA_ASSIGNMENT>
Rh25, 199.00, 25

> <NMREDATA_1D_103Rh>
199.00, L=Rh25

$$$$

  ACD/LABS03262411242D

 63 70  0  0  0  0  0  0  0  0  2 V2000
   14.9207  -14.6202    0.0000 C    0  0  0  0  0  0  0  0  0  0  0  0
   13.8249  -15.3657    0.0000 C    0  0  0  0  0  0  0  0  0  0  0  0
   14.8287  -13.2908    0.0000 C    0  0  0  0  0  0  0  0  0  0  0  0
   12.6217  -14.7902    0.0000 C    0  0  0  0  0  0  0  0  0  0  0  0
   13.6260  -12.7150    0.0000 C    0  0  0  0  0  0  0  0  0  0  0  0
   12.5299  -13.4601    0.0000 C    0  0  0  0  0  0  0  0  0  0  0  0
   15.3991  -12.7358    0.0000 C    0  0  0  0  0  0  0  0  0  0  0  0
   16.7145  -12.8678    0.0000 C    0  0  0  0  0  0  0  0  0  0  0  0
   14.8414  -11.5218    0.0000 C    0  0  0  0  0  0  0  0  0  0  0  0
   17.4917  -11.7837    0.0000 C    0  0  0  0  0  0  0  0  0  0  0  0
   15.6230  -10.4454    0.0000 C    0  0  0  0  0  0  0  0  0  0  0  0
   16.9460  -10.5725    0.0000 C    0  0  0  0  0  0  0  0  0  0  0  0
   11.4593  -10.3812    0.0000 C    0  0  0  0  0  0  0  0  0  0  0  0
   10.1382  -10.4885    0.0000 C    0  0  0  0  0  0  0  0  0  0  0  0
   12.2086  -11.4846    0.0000 C    0  0  0  0  0  0  0  0  0  0  0  0
    9.5461  -11.6800    0.0000 C    0  0  0  0  0  0  0  0  0  0  0  0
   11.6213  -12.6842    0.0000 C    0  0  0  0  0  0  0  0  0  0  0  0
   10.2957  -12.7838    0.0000 C    0  0  0  0  0  0  0  0  0  0  0  0
    7.8829  -13.5724    0.0000 C    0  0  0  0  0  0  0  0  0  0  0  0
    6.6456  -14.0719    0.0000 C    0  0  0  0  0  0  0  0  0  0  0  0
    8.0621  -12.2503    0.0000 C    0  0  0  0  0  0  0  0  0  0  0  0
    5.6038  -13.2606    0.0000 C    0  0  0  0  0  0  0  0  0  0  0  0
    7.0125  -11.4435    0.0000 C    0  0  0  0  0  0  0  0  0  0  0  0
    5.7867  -11.9461    0.0000 C    0  0  0  0  0  0  0  0  0  0  0  0
   10.8647  -14.0532    0.0000 C    0  0  0  0  0  0  0  0  0  0  0  0
   11.7702  -15.0360    0.0000 C    0  0  0  0  0  0  0  0  0  0  0  0
    9.5667  -14.3413    0.0000 C    0  0  0  0  0  0  0  0  0  0  0  0
   11.3735  -16.2998    0.0000 C    0  0  0  0  0  0  0  0  0  0  0  0
    9.1740  -15.6131    0.0000 C    0  0  0  0  0  0  0  0  0  0  0  0
   10.0750  -16.5882    0.0000 C    0  0  0  0  0  0  0  0  0  0  0  0
    9.6519   -8.4753    0.0000 C    0  0  0  0  0  0  0  0  0  0  0  0
    8.3420   -8.2994    0.0000 C    0  0  0  0  0  0  0  0  0  0  0  0
   10.4713   -7.4287    0.0000 C    0  0  0  0  0  0  0  0  0  0  0  0
    7.8345   -7.0661    0.0000 C    0  0  0  0  0  0  0  0  0  0  0  0
    9.9720   -6.1907    0.0000 C    0  0  0  0  0  0  0  0  0  0  0  0
    8.6495   -6.0118    0.0000 C    0  0  0  0  0  0  0  0  0  0  0  0
   13.4348  -10.0599    0.0000 Rh   0  0  0  0  0  0  0  0  0  0  0  0
   14.1259   -8.9339    0.0000 S    0  0  0  0  0  0  0  0  0  0  0  0
   21.2529   -9.1619    0.0000 C    0  0  0  0  0  0  0  0  0  0  0  0
   20.6262   -7.9871    0.0000 C    0  0  0  0  0  0  0  0  0  0  0  0
   20.5492  -10.2849    0.0000 C    0  0  0  0  0  0  0  0  0  0  0  0
   19.3001   -7.9438    0.0000 C    0  0  0  0  0  0  0  0  0  0  0  0
   19.2235  -10.2413    0.0000 C    0  0  0  0  0  0  0  0  0  0  0  0
   18.5886   -9.0712    0.0000 C    0  0  0  0  0  0  0  0  0  0  0  0
   18.5242  -11.3720    0.0000 F    0  0  0  0  0  0  0  0  0  0  0  0
   21.1763  -11.4594    0.0000 F    0  0  0  0  0  0  0  0  0  0  0  0
   22.5868   -9.2007    0.0000 F    0  0  0  0  0  0  0  0  0  0  0  0
   21.3250   -6.8566    0.0000 F    0  0  0  0  0  0  0  0  0  0  0  0
   18.6657   -6.7734    0.0000 F    0  0  0  0  0  0  0  0  0  0  0  0
   14.7175  -10.3844    0.0000 O    0  0  0  0  0  0  0  0  0  0  0  0
   15.6373   -9.4231    0.0000 O    0  0  0  0  0  0  0  0  0  0  0  0
   10.7463  -11.1509    0.0000 P    0  0  0  0  0  0  0  0  0  0  0  0
   13.5341  -11.3850    0.0000 P    0  0  0  0  0  0  0  0  0  0  0  0
   12.5756   -9.0510    0.0000 C    0  0  0  0  0  0  0  0  0  0  0  0
   13.0206   -7.8005    0.0000 C    0  0  0  0  0  0  0  0  0  0  0  0
   12.1616   -6.7909    0.0000 C    0  0  0  0  0  0  0  0  0  0  0  0
   14.3299   -7.5665    0.0000 C    0  0  0  0  0  0  0  0  0  0  0  0
   12.6144   -5.5360    0.0000 C    0  0  0  0  0  0  0  0  0  0  0  0
   14.7832   -6.3114    0.0000 C    0  0  0  0  0  0  0  0  0  0  0  0
   13.9237   -5.3020    0.0000 C    0  0  0  0  0  0  0  0  0  0  0  0
   14.3769   -4.0469    0.0000 C    0  0  0  0  0  0  0  0  0  0  0  0
   13.5130   -3.0297    0.0000 N    0  3  0  0  0  0  0  0  0  0  0  0
   12.6539   -2.0200    0.0000 C    0  5  0  0  0  0  0  0  0  0  0  0
  1  2  1  0  0  0  0
  1  3  2  0  0  0  0
  2  4  2  0  0  0  0
  3  5  1  0  0  0  0
  4  6  1  0  0  0  0
  5  6  2  0  0  0  0
  7  8  1  0  0  0  0
  7  9  2  0  0  0  0
  8 10  2  0  0  0  0
  9 11  1  0  0  0  0
 10 12  1  0  0  0  0
 11 12  2  0  0  0  0
 13 14  1  0  0  0  0
 13 15  2  0  0  0  0
 14 16  2  0  0  0  0
 15 17  1  0  0  0  0
 16 18  1  0  0  0  0
 17 18  2  0  0  0  0
 19 20  1  0  0  0  0
 19 21  2  0  0  0  0
 20 22  2  0  0  0  0
 21 23  1  0  0  0  0
 22 24  1  0  0  0  0
 23 24  2  0  0  0  0
 25 26  1  0  0  0  0
 25 27  2  0  0  0  0
 26 28  2  0  0  0  0
 27 29  1  0  0  0  0
 28 30  1  0  0  0  0
 29 30  2  0  0  0  0
 31 32  1  0  0  0  0
 31 33  2  0  0  0  0
 32 34  2  0  0  0  0
 33 35  1  0  0  0  0
 34 36  1  0  0  0  0
 35 36  2  0  0  0  0
 37 38  1  0  0  0  0
 39 40  1  0  0  0  0
 39 41  2  0  0  0  0
 40 42  2  0  0  0  0
 41 43  1  0  0  0  0
 42 44  1  0  0  0  0
 43 44  2  0  0  0  0
 38 44  1  0  0  0  0
 43 45  1  0  0  0  0
 41 46  1  0  0  0  0
 39 47  1  0  0  0  0
 40 48  1  0  0  0  0
 42 49  1  0  0  0  0
 37 50  1  0  0  0  0
 50 51  2  0  0  0  0
 37 52  1  0  0  0  0
 37 53  1  0  0  0  0
 31 52  1  0  0  0  0
 25 52  1  0  0  0  0
 21 52  1  0  0  0  0
 15 53  1  0  0  0  0
  9 53  1  0  0  0  0
  5 53  1  0  0  0  0
 37 54  1  0  0  0  0
 55 56  1  0  0  0  0
 55 57  2  0  0  0  0
 56 58  2  0  0  0  0
 57 59  1  0  0  0  0
 58 60  1  0  0  0  0
 59 60  2  0  0  0  0
 54 55  1  0  0  0  0
 60 61  1  0  0  0  0
 62 63  3  0  0  0  0
 61 62  1  0  0  0  0
M  END
> <NMREDATA_VERSION>
1.1

> <NMREDATA_LEVEL>
0

> <NMREDATA_SOLVENT>
toluene-d8

> <NMREDATA_TEMPERATURE>
300

> <NMREDATA_FORMULA>
C51H42F5NO2P2RhS

> <NMREDATA_SMILES>
C#NCc1ccc(cc1)C[Rh](P(c1ccccc1)(c1ccccc1)c1ccccc1)(P(c1ccccc1)(c1ccccc1)c1ccccc1)(Sc1c(F)c(F)c(c(c1F)F)F)[O]=O

> <NMREDATA_ASSIGNMENT>
Rh37, 1601.00, 37

> <NMREDATA_1D_103Rh>
1601.00, L=Rh37

$$$$

  ACD/LABS03262411272D

 70 76  0  0  0  0  0  0  0  0  2 V2000
   27.0327   -7.3150    0.0000 B    0  5  0  0  0  0  0  0  0  0  0  0
   25.8670   -6.6420    0.0000 F    0  0  0  0  0  0  0  0  0  0  0  0
   27.7057   -6.1493    0.0000 F    0  0  0  0  0  0  0  0  0  0  0  0
   26.3596   -8.4807    0.0000 F    0  0  0  0  0  0  0  0  0  0  0  0
   28.1984   -7.9880    0.0000 F    0  0  0  0  0  0  0  0  0  0  0  0
    9.6774  -12.4818    0.0000 C    0  0  0  0  0  0  0  0  0  0  0  0
    9.6700  -13.8175    0.0000 C    0  0  0  0  0  0  0  0  0  0  0  0
    8.5369  -11.8197    0.0000 C    0  0  0  0  0  0  0  0  0  0  0  0
    8.5133  -14.4751    0.0000 C    0  0  0  0  0  0  0  0  0  0  0  0
    7.3800  -12.4769    0.0000 C    0  0  0  0  0  0  0  0  0  0  0  0
    7.3685  -13.8047    0.0000 C    0  0  0  0  0  0  0  0  0  0  0  0
    8.8673  -10.9017    0.0000 C    0  0  0  0  0  0  0  0  0  0  0  0
   10.1811  -10.6756    0.0000 C    0  0  0  0  0  0  0  0  0  0  0  0
    8.0190   -9.8754    0.0000 C    0  0  0  0  0  0  0  0  0  0  0  0
   10.6385   -9.4279    0.0000 C    0  0  0  0  0  0  0  0  0  0  0  0
    8.4841   -8.6233    0.0000 C    0  0  0  0  0  0  0  0  0  0  0  0
    9.7905   -8.4021    0.0000 C    0  0  0  0  0  0  0  0  0  0  0  0
   10.8208  -14.1259    0.0000 C    0  0  0  0  0  0  0  0  0  0  0  0
   11.4917  -12.9808    0.0000 C    0  0  0  0  0  0  0  0  0  0  0  0
   11.4785  -15.2825    0.0000 C    0  0  0  0  0  0  0  0  0  0  0  0
   12.8274  -12.9883    0.0000 C    0  0  0  0  0  0  0  0  0  0  0  0
   12.8142  -15.2900    0.0000 C    0  0  0  0  0  0  0  0  0  0  0  0
   13.4850  -14.1449    0.0000 C    0  0  0  0  0  0  0  0  0  0  0  0
   21.5743   -9.6180    0.0000 C    0  0  0  0  0  0  0  0  0  0  0  0
   20.2596   -9.4347    0.0000 C    0  0  0  0  0  0  0  0  0  0  0  0
   22.0738  -10.8558    0.0000 C    0  0  0  0  0  0  0  0  0  0  0  0
   19.4405  -10.4813    0.0000 C    0  0  0  0  0  0  0  0  0  0  0  0
   21.2464  -11.9066    0.0000 C    0  0  0  0  0  0  0  0  0  0  0  0
   19.9273  -11.7156    0.0000 C    0  0  0  0  0  0  0  0  0  0  0  0
   16.0703   -8.8315    0.0000 Rh   0  3  0  0  0  0  0  0  0  0  0  0
   14.8486   -8.3292    0.0000 H    0  0  0  0  0  0  0  0  0  0  0  0
   16.3032   -5.9530    0.0000 C    0  0  0  0  0  0  0  0  0  0  0  0
   19.9074   -4.2301    0.0000 C    0  0  0  0  0  0  0  0  0  0  0  0
   18.8093   -3.4813    0.0000 C    0  0  0  0  0  0  0  0  0  0  0  0
   19.8049   -5.5597    0.0000 C    0  0  0  0  0  0  0  0  0  0  0  0
   17.6117   -4.0503    0.0000 C    0  0  0  0  0  0  0  0  0  0  0  0
   18.5989   -6.1329    0.0000 C    0  0  0  0  0  0  0  0  0  0  0  0
   17.5085   -5.3796    0.0000 C    0  0  0  0  0  0  0  0  0  0  0  0
   15.3530   -5.0161    0.0000 N    0  0  0  0  0  0  0  0  0  0  0  0
   14.0748   -5.3752    0.0000 C    0  0  0  0  0  0  0  0  0  0  0  0
   13.7431   -6.6627    0.0000 N    0  0  0  0  0  0  0  0  0  0  0  0
   13.1215   -4.4508    0.0000 C    0  0  0  0  0  0  0  0  0  0  0  0
   12.4653   -7.0215    0.0000 C    0  0  0  0  0  0  0  0  0  0  0  0
   11.8387   -4.8018    0.0000 C    0  0  0  0  0  0  0  0  0  0  0  0
   11.5197   -6.0927    0.0000 C    0  0  0  0  0  0  0  0  0  0  0  0
   13.4489   -3.1557    0.0000 C    0  0  0  0  0  0  0  0  0  0  0  0
   10.8341  -11.8242    0.0000 P    0  0  0  0  0  0  0  0  0  0  0  0
   16.5622  -10.0737    0.0000 P    0  0  0  0  0  0  0  0  0  0  0  0
   11.7088  -11.3706    0.0000 C    0  0  0  0  0  0  0  0  0  0  0  0
   13.0452  -11.3256    0.0000 C    0  0  0  0  0  0  0  0  0  0  0  0
   11.0177  -10.2440    0.0000 C    0  0  0  0  0  0  0  0  0  0  0  0
   13.6705  -10.1555    0.0000 C    0  0  0  0  0  0  0  0  0  0  0  0
   11.6427   -9.0734    0.0000 C    0  0  0  0  0  0  0  0  0  0  0  0
   12.9714   -9.0335    0.0000 C    0  0  0  0  0  0  0  0  0  0  0  0
   18.0458  -13.3349    0.0000 C    0  0  0  0  0  0  0  0  0  0  0  0
   18.0057  -12.0058    0.0000 C    0  0  0  0  0  0  0  0  0  0  0  0
   16.9156  -14.0383    0.0000 C    0  0  0  0  0  0  0  0  0  0  0  0
   16.8312  -11.3729    0.0000 C    0  0  0  0  0  0  0  0  0  0  0  0
   15.7491  -13.4007    0.0000 C    0  0  0  0  0  0  0  0  0  0  0  0
   15.7012  -12.0767    0.0000 C    0  0  0  0  0  0  0  0  0  0  0  0
   18.9123   -2.1553    0.0000 N    0  3  0  0  0  0  0  0  0  0  0  0
   20.1122   -1.5815    0.0000 O    0  5  0  0  0  0  0  0  0  0  0  0
   17.8155   -1.4031    0.0000 O    0  0  0  0  0  0  0  0  0  0  0  0
   18.1553   -7.7877    0.0000 P    0  0  0  0  0  0  0  0  0  0  0  0
   20.8153   -6.5058    0.0000 O    0  0  0  0  0  0  0  0  0  0  0  0
   20.9916   -7.4512    0.0000 O    0  0  0  0  0  0  0  0  0  0  0  0
   21.6486   -8.2684    0.0000 O    0  0  0  0  0  0  0  0  0  0  0  0
   21.7287   -5.8648    0.0000 C    0  0  0  0  0  0  0  0  0  0  0  0
   22.4337   -6.8904    0.0000 C    0  0  0  0  0  0  0  0  0  0  0  0
   22.7222   -7.7076    0.0000 C    0  0  0  0  0  0  0  0  0  0  0  0
  1  2  1  0  0  0  0
  1  3  1  0  0  0  0
  1  4  1  0  0  0  0
  1  5  1  0  0  0  0
  6  7  1  0  0  0  0
  6  8  2  0  0  0  0
  7  9  2  0  0  0  0
  8 10  1  0  0  0  0
  9 11  1  0  0  0  0
 10 11  2  0  0  0  0
 12 13  1  0  0  0  0
 12 14  2  0  0  0  0
 13 15  2  0  0  0  0
 14 16  1  0  0  0  0
 15 17  1  0  0  0  0
 16 17  2  0  0  0  0
 18 19  1  0  0  0  0
 18 20  2  0  0  0  0
 19 21  2  0  0  0  0
 20 22  1  0  0  0  0
 21 23  1  0  0  0  0
 22 23  2  0  0  0  0
 24 25  1  0  0  0  0
 24 26  2  0  0  0  0
 25 27  2  0  0  0  0
 26 28  1  0  0  0  0
 27 29  1  0  0  0  0
 28 29  2  0  0  0  0
 30 31  1  0  0  0  0
 30 32  1  0  0  0  0
 33 34  1  0  0  0  0
 33 35  2  0  0  0  0
 34 36  2  0  0  0  0
 35 37  1  0  0  0  0
 36 38  1  0  0  0  0
 37 38  2  0  0  0  0
 32 38  1  0  0  0  0
 32 39  2  0  0  0  0
 40 41  1  0  0  0  0
 40 42  2  0  0  0  0
 41 43  2  0  0  0  0
 42 44  1  0  0  0  0
 43 45  1  0  0  0  0
 44 45  2  0  0  0  0
 39 40  1  0  0  0  0
 42 46  1  0  0  0  0
 30 47  1  0  0  0  0
 30 48  1  0  0  0  0
 27 48  1  0  0  0  0
 49 50  1  0  0  0  0
 49 51  2  0  0  0  0
 50 52  2  0  0  0  0
 51 53  1  0  0  0  0
 52 54  1  0  0  0  0
 53 54  2  0  0  0  0
 48 52  1  0  0  0  0
 55 56  1  0  0  0  0
 55 57  2  0  0  0  0
 56 58  2  0  0  0  0
 57 59  1  0  0  0  0
 58 60  1  0  0  0  0
 59 60  2  0  0  0  0
 48 58  1  0  0  0  0
 19 47  1  0  0  0  0
 13 47  1  0  0  0  0
  6 47  1  0  0  0  0
 61 62  1  0  0  0  0
 61 63  2  0  0  0  0
 34 61  1  0  0  0  0
 30 64  1  0  0  0  0
 64 65  1  0  0  0  0
 64 66  1  0  0  0  0
 64 67  1  0  0  0  0
 65 68  1  0  0  0  0
 66 69  1  0  0  0  0
 67 70  1  0  0  0  0
M  END
> <NMREDATA_VERSION>
1.1

> <NMREDATA_LEVEL>
0

> <NMREDATA_SOLVENT>
DCCl3

> <NMREDATA_FORMULA>
C52H55BF4N3O5P3Rh

> <NMREDATA_SMILES>
F[B](F)(F)F.COP([RhH](P(c1ccccc1)(c1ccccc1)c1ccccc1)(P(c1ccccc1)(c1ccccc1)c1ccccc1)/C(=N\c1ncccc1C)/c1cccc(c1)N(=O)O)(OC)OC

> <NMREDATA_ASSIGNMENT>
Rh30, 125.00, 30

> <NMREDATA_1D_103Rh>
125.00, L=Rh30

$$$$

  ACD/LABS03262411272D

 68 74  0  0  0  0  0  0  0  0  2 V2000
   27.0327   -7.3150    0.0000 B    0  5  0  0  0  0  0  0  0  0  0  0
   25.8670   -6.6420    0.0000 F    0  0  0  0  0  0  0  0  0  0  0  0
   27.7057   -6.1493    0.0000 F    0  0  0  0  0  0  0  0  0  0  0  0
   26.3596   -8.4807    0.0000 F    0  0  0  0  0  0  0  0  0  0  0  0
   28.1984   -7.9880    0.0000 F    0  0  0  0  0  0  0  0  0  0  0  0
    9.6774  -12.4818    0.0000 C    0  0  0  0  0  0  0  0  0  0  0  0
    9.6700  -13.8175    0.0000 C    0  0  0  0  0  0  0  0  0  0  0  0
    8.5369  -11.8197    0.0000 C    0  0  0  0  0  0  0  0  0  0  0  0
    8.5133  -14.4751    0.0000 C    0  0  0  0  0  0  0  0  0  0  0  0
    7.3800  -12.4769    0.0000 C    0  0  0  0  0  0  0  0  0  0  0  0
    7.3685  -13.8047    0.0000 C    0  0  0  0  0  0  0  0  0  0  0  0
    8.8673  -10.9017    0.0000 C    0  0  0  0  0  0  0  0  0  0  0  0
   10.1811  -10.6756    0.0000 C    0  0  0  0  0  0  0  0  0  0  0  0
    8.0190   -9.8754    0.0000 C    0  0  0  0  0  0  0  0  0  0  0  0
   10.6385   -9.4279    0.0000 C    0  0  0  0  0  0  0  0  0  0  0  0
    8.4841   -8.6233    0.0000 C    0  0  0  0  0  0  0  0  0  0  0  0
    9.7905   -8.4021    0.0000 C    0  0  0  0  0  0  0  0  0  0  0  0
   10.8208  -14.1259    0.0000 C    0  0  0  0  0  0  0  0  0  0  0  0
   11.4917  -12.9808    0.0000 C    0  0  0  0  0  0  0  0  0  0  0  0
   11.4785  -15.2825    0.0000 C    0  0  0  0  0  0  0  0  0  0  0  0
   12.8274  -12.9883    0.0000 C    0  0  0  0  0  0  0  0  0  0  0  0
   12.8142  -15.2900    0.0000 C    0  0  0  0  0  0  0  0  0  0  0  0
   13.4850  -14.1449    0.0000 C    0  0  0  0  0  0  0  0  0  0  0  0
   21.5743   -9.6180    0.0000 C    0  0  0  0  0  0  0  0  0  0  0  0
   20.2596   -9.4347    0.0000 C    0  0  0  0  0  0  0  0  0  0  0  0
   22.0738  -10.8558    0.0000 C    0  0  0  0  0  0  0  0  0  0  0  0
   19.4405  -10.4813    0.0000 C    0  0  0  0  0  0  0  0  0  0  0  0
   21.2464  -11.9066    0.0000 C    0  0  0  0  0  0  0  0  0  0  0  0
   19.9273  -11.7156    0.0000 C    0  0  0  0  0  0  0  0  0  0  0  0
   16.0703   -8.8315    0.0000 Rh   0  3  0  0  0  0  0  0  0  0  0  0
   14.8486   -8.3292    0.0000 H    0  0  0  0  0  0  0  0  0  0  0  0
   16.3032   -5.9530    0.0000 C    0  0  0  0  0  0  0  0  0  0  0  0
   19.9074   -4.2301    0.0000 C    0  0  0  0  0  0  0  0  0  0  0  0
   18.8093   -3.4813    0.0000 C    0  0  0  0  0  0  0  0  0  0  0  0
   19.8049   -5.5597    0.0000 C    0  0  0  0  0  0  0  0  0  0  0  0
   17.6117   -4.0503    0.0000 C    0  0  0  0  0  0  0  0  0  0  0  0
   18.5989   -6.1329    0.0000 C    0  0  0  0  0  0  0  0  0  0  0  0
   17.5085   -5.3796    0.0000 C    0  0  0  0  0  0  0  0  0  0  0  0
   15.3530   -5.0161    0.0000 N    0  0  0  0  0  0  0  0  0  0  0  0
   14.0748   -5.3752    0.0000 C    0  0  0  0  0  0  0  0  0  0  0  0
   13.7431   -6.6627    0.0000 N    0  0  0  0  0  0  0  0  0  0  0  0
   13.1215   -4.4508    0.0000 C    0  0  0  0  0  0  0  0  0  0  0  0
   12.4653   -7.0215    0.0000 C    0  0  0  0  0  0  0  0  0  0  0  0
   11.8387   -4.8018    0.0000 C    0  0  0  0  0  0  0  0  0  0  0  0
   11.5197   -6.0927    0.0000 C    0  0  0  0  0  0  0  0  0  0  0  0
   13.4489   -3.1557    0.0000 C    0  0  0  0  0  0  0  0  0  0  0  0
   10.8341  -11.8242    0.0000 P    0  0  0  0  0  0  0  0  0  0  0  0
   16.5622  -10.0737    0.0000 P    0  0  0  0  0  0  0  0  0  0  0  0
   11.7088  -11.3706    0.0000 C    0  0  0  0  0  0  0  0  0  0  0  0
   13.0452  -11.3256    0.0000 C    0  0  0  0  0  0  0  0  0  0  0  0
   11.0177  -10.2440    0.0000 C    0  0  0  0  0  0  0  0  0  0  0  0
   13.6705  -10.1555    0.0000 C    0  0  0  0  0  0  0  0  0  0  0  0
   11.6427   -9.0734    0.0000 C    0  0  0  0  0  0  0  0  0  0  0  0
   12.9714   -9.0335    0.0000 C    0  0  0  0  0  0  0  0  0  0  0  0
   18.0458  -13.3349    0.0000 C    0  0  0  0  0  0  0  0  0  0  0  0
   18.0057  -12.0058    0.0000 C    0  0  0  0  0  0  0  0  0  0  0  0
   16.9156  -14.0383    0.0000 C    0  0  0  0  0  0  0  0  0  0  0  0
   16.8312  -11.3729    0.0000 C    0  0  0  0  0  0  0  0  0  0  0  0
   15.7491  -13.4007    0.0000 C    0  0  0  0  0  0  0  0  0  0  0  0
   15.7012  -12.0767    0.0000 C    0  0  0  0  0  0  0  0  0  0  0  0
   18.1553   -7.7877    0.0000 P    0  0  0  0  0  0  0  0  0  0  0  0
   20.8153   -6.5058    0.0000 O    0  0  0  0  0  0  0  0  0  0  0  0
   20.9916   -7.4512    0.0000 O    0  0  0  0  0  0  0  0  0  0  0  0
   21.6486   -8.2684    0.0000 O    0  0  0  0  0  0  0  0  0  0  0  0
   21.7287   -5.8648    0.0000 C    0  0  0  0  0  0  0  0  0  0  0  0
   22.4337   -6.8904    0.0000 C    0  0  0  0  0  0  0  0  0  0  0  0
   22.7222   -7.7076    0.0000 C    0  0  0  0  0  0  0  0  0  0  0  0
   16.9054   -3.6855    0.0000 O    0  0  0  0  0  0  0  0  0  0  0  0
  1  2  1  0  0  0  0
  1  3  1  0  0  0  0
  1  4  1  0  0  0  0
  1  5  1  0  0  0  0
  6  7  1  0  0  0  0
  6  8  2  0  0  0  0
  7  9  2  0  0  0  0
  8 10  1  0  0  0  0
  9 11  1  0  0  0  0
 10 11  2  0  0  0  0
 12 13  1  0  0  0  0
 12 14  2  0  0  0  0
 13 15  2  0  0  0  0
 14 16  1  0  0  0  0
 15 17  1  0  0  0  0
 16 17  2  0  0  0  0
 18 19  1  0  0  0  0
 18 20  2  0  0  0  0
 19 21  2  0  0  0  0
 20 22  1  0  0  0  0
 21 23  1  0  0  0  0
 22 23  2  0  0  0  0
 24 25  1  0  0  0  0
 24 26  2  0  0  0  0
 25 27  2  0  0  0  0
 26 28  1  0  0  0  0
 27 29  1  0  0  0  0
 28 29  2  0  0  0  0
 30 31  1  0  0  0  0
 30 32  1  0  0  0  0
 33 34  1  0  0  0  0
 33 35  2  0  0  0  0
 34 36  2  0  0  0  0
 35 37  1  0  0  0  0
 36 38  1  0  0  0  0
 37 38  2  0  0  0  0
 32 38  1  0  0  0  0
 32 39  2  0  0  0  0
 40 41  1  0  0  0  0
 40 42  2  0  0  0  0
 41 43  2  0  0  0  0
 42 44  1  0  0  0  0
 43 45  1  0  0  0  0
 44 45  2  0  0  0  0
 39 40  1  0  0  0  0
 42 46  1  0  0  0  0
 30 47  1  0  0  0  0
 30 48  1  0  0  0  0
 27 48  1  0  0  0  0
 49 50  1  0  0  0  0
 49 51  2  0  0  0  0
 50 52  2  0  0  0  0
 51 53  1  0  0  0  0
 52 54  1  0  0  0  0
 53 54  2  0  0  0  0
 48 52  1  0  0  0  0
 55 56  1  0  0  0  0
 55 57  2  0  0  0  0
 56 58  2  0  0  0  0
 57 59  1  0  0  0  0
 58 60  1  0  0  0  0
 59 60  2  0  0  0  0
 48 58  1  0  0  0  0
 19 47  1  0  0  0  0
 13 47  1  0  0  0  0
  6 47  1  0  0  0  0
 30 61  1  0  0  0  0
 61 62  1  0  0  0  0
 61 63  1  0  0  0  0
 61 64  1  0  0  0  0
 62 65  1  0  0  0  0
 63 66  1  0  0  0  0
 64 67  1  0  0  0  0
 36 68  1  0  0  0  0
M  END
> <NMREDATA_VERSION>
1.1

> <NMREDATA_LEVEL>
0

> <NMREDATA_SOLVENT>
DCCl3

> <NMREDATA_FORMULA>
C52H54BF4N2O4P3Rh

> <NMREDATA_SMILES>
F[B](F)(F)F.COP([RhH](P(c1ccccc1)(c1ccccc1)c1ccccc1)(P(c1ccccc1)(c1ccccc1)c1ccccc1)/C(=N\c1ncccc1C)/c1ccccc1O)(OC)OC

> <NMREDATA_ASSIGNMENT>
Rh30, 106.00, 30

> <NMREDATA_1D_103Rh>
106.00, L=Rh30

$$$$

  ACD/LABS03262411282D

 63 69  0  0  0  0  0  0  0  0  2 V2000
   27.0327   -7.3150    0.0000 B    0  5  0  0  0  0  0  0  0  0  0  0
   25.8670   -6.6420    0.0000 F    0  0  0  0  0  0  0  0  0  0  0  0
   27.7057   -6.1493    0.0000 F    0  0  0  0  0  0  0  0  0  0  0  0
   26.3596   -8.4807    0.0000 F    0  0  0  0  0  0  0  0  0  0  0  0
   28.1984   -7.9880    0.0000 F    0  0  0  0  0  0  0  0  0  0  0  0
    9.6774  -12.4818    0.0000 C    0  0  0  0  0  0  0  0  0  0  0  0
    9.6700  -13.8175    0.0000 C    0  0  0  0  0  0  0  0  0  0  0  0
    8.5369  -11.8197    0.0000 C    0  0  0  0  0  0  0  0  0  0  0  0
    8.5133  -14.4751    0.0000 C    0  0  0  0  0  0  0  0  0  0  0  0
    7.3800  -12.4769    0.0000 C    0  0  0  0  0  0  0  0  0  0  0  0
    7.3685  -13.8047    0.0000 C    0  0  0  0  0  0  0  0  0  0  0  0
    8.8673  -10.9017    0.0000 C    0  0  0  0  0  0  0  0  0  0  0  0
   10.1811  -10.6756    0.0000 C    0  0  0  0  0  0  0  0  0  0  0  0
    8.0190   -9.8754    0.0000 C    0  0  0  0  0  0  0  0  0  0  0  0
   10.6385   -9.4279    0.0000 C    0  0  0  0  0  0  0  0  0  0  0  0
    8.4841   -8.6233    0.0000 C    0  0  0  0  0  0  0  0  0  0  0  0
    9.7905   -8.4021    0.0000 C    0  0  0  0  0  0  0  0  0  0  0  0
   10.8208  -14.1259    0.0000 C    0  0  0  0  0  0  0  0  0  0  0  0
   11.4917  -12.9808    0.0000 C    0  0  0  0  0  0  0  0  0  0  0  0
   11.4785  -15.2825    0.0000 C    0  0  0  0  0  0  0  0  0  0  0  0
   12.8274  -12.9883    0.0000 C    0  0  0  0  0  0  0  0  0  0  0  0
   12.8142  -15.2900    0.0000 C    0  0  0  0  0  0  0  0  0  0  0  0
   13.4850  -14.1449    0.0000 C    0  0  0  0  0  0  0  0  0  0  0  0
   21.5743   -9.6180    0.0000 C    0  0  0  0  0  0  0  0  0  0  0  0
   20.2596   -9.4347    0.0000 C    0  0  0  0  0  0  0  0  0  0  0  0
   22.0738  -10.8558    0.0000 C    0  0  0  0  0  0  0  0  0  0  0  0
   19.4405  -10.4813    0.0000 C    0  0  0  0  0  0  0  0  0  0  0  0
   21.2464  -11.9066    0.0000 C    0  0  0  0  0  0  0  0  0  0  0  0
   19.9273  -11.7156    0.0000 C    0  0  0  0  0  0  0  0  0  0  0  0
   16.0703   -8.8315    0.0000 Rh   0  3  0  0  0  0  0  0  0  0  0  0
   14.8486   -8.3292    0.0000 H    0  0  0  0  0  0  0  0  0  0  0  0
   16.3032   -5.9530    0.0000 C    0  0  0  0  0  0  0  0  0  0  0  0
   19.9074   -4.2301    0.0000 C    0  0  0  0  0  0  0  0  0  0  0  0
   18.8093   -3.4813    0.0000 C    0  0  0  0  0  0  0  0  0  0  0  0
   19.8049   -5.5597    0.0000 C    0  0  0  0  0  0  0  0  0  0  0  0
   17.6117   -4.0503    0.0000 C    0  0  0  0  0  0  0  0  0  0  0  0
   18.5989   -6.1329    0.0000 C    0  0  0  0  0  0  0  0  0  0  0  0
   17.5085   -5.3796    0.0000 C    0  0  0  0  0  0  0  0  0  0  0  0
   15.3530   -5.0161    0.0000 N    0  0  0  0  0  0  0  0  0  0  0  0
   14.0748   -5.3752    0.0000 C    0  0  0  0  0  0  0  0  0  0  0  0
   13.7431   -6.6627    0.0000 N    0  0  0  0  0  0  0  0  0  0  0  0
   13.1215   -4.4508    0.0000 C    0  0  0  0  0  0  0  0  0  0  0  0
   12.4653   -7.0215    0.0000 C    0  0  0  0  0  0  0  0  0  0  0  0
   11.8387   -4.8018    0.0000 C    0  0  0  0  0  0  0  0  0  0  0  0
   11.5197   -6.0927    0.0000 C    0  0  0  0  0  0  0  0  0  0  0  0
   13.4489   -3.1557    0.0000 C    0  0  0  0  0  0  0  0  0  0  0  0
   10.8341  -11.8242    0.0000 P    0  0  0  0  0  0  0  0  0  0  0  0
   16.5622  -10.0737    0.0000 P    0  0  0  0  0  0  0  0  0  0  0  0
   11.7088  -11.3706    0.0000 C    0  0  0  0  0  0  0  0  0  0  0  0
   13.0452  -11.3256    0.0000 C    0  0  0  0  0  0  0  0  0  0  0  0
   11.0177  -10.2440    0.0000 C    0  0  0  0  0  0  0  0  0  0  0  0
   13.6705  -10.1555    0.0000 C    0  0  0  0  0  0  0  0  0  0  0  0
   11.6427   -9.0734    0.0000 C    0  0  0  0  0  0  0  0  0  0  0  0
   12.9714   -9.0335    0.0000 C    0  0  0  0  0  0  0  0  0  0  0  0
   18.0458  -13.3349    0.0000 C    0  0  0  0  0  0  0  0  0  0  0  0
   18.0057  -12.0058    0.0000 C    0  0  0  0  0  0  0  0  0  0  0  0
   16.9156  -14.0383    0.0000 C    0  0  0  0  0  0  0  0  0  0  0  0
   16.8312  -11.3729    0.0000 C    0  0  0  0  0  0  0  0  0  0  0  0
   15.7491  -13.4007    0.0000 C    0  0  0  0  0  0  0  0  0  0  0  0
   15.7012  -12.0767    0.0000 C    0  0  0  0  0  0  0  0  0  0  0  0
   16.9054   -3.6855    0.0000 O    0  0  0  0  0  0  0  0  0  0  0  0
   17.3854   -8.6353    0.0000 C    0  0  0  0  0  0  0  0  0  0  0  0
   18.7006   -8.4390    0.0000 N    0  0  0  0  0  0  0  0  0  0  0  0
  1  2  1  0  0  0  0
  1  3  1  0  0  0  0
  1  4  1  0  0  0  0
  1  5  1  0  0  0  0
  6  7  1  0  0  0  0
  6  8  2  0  0  0  0
  7  9  2  0  0  0  0
  8 10  1  0  0  0  0
  9 11  1  0  0  0  0
 10 11  2  0  0  0  0
 12 13  1  0  0  0  0
 12 14  2  0  0  0  0
 13 15  2  0  0  0  0
 14 16  1  0  0  0  0
 15 17  1  0  0  0  0
 16 17  2  0  0  0  0
 18 19  1  0  0  0  0
 18 20  2  0  0  0  0
 19 21  2  0  0  0  0
 20 22  1  0  0  0  0
 21 23  1  0  0  0  0
 22 23  2  0  0  0  0
 24 25  1  0  0  0  0
 24 26  2  0  0  0  0
 25 27  2  0  0  0  0
 26 28  1  0  0  0  0
 27 29  1  0  0  0  0
 28 29  2  0  0  0  0
 30 31  1  0  0  0  0
 30 32  1  0  0  0  0
 33 34  1  0  0  0  0
 33 35  2  0  0  0  0
 34 36  2  0  0  0  0
 35 37  1  0  0  0  0
 36 38  1  0  0  0  0
 37 38  2  0  0  0  0
 32 38  1  0  0  0  0
 32 39  2  0  0  0  0
 40 41  1  0  0  0  0
 40 42  2  0  0  0  0
 41 43  2  0  0  0  0
 42 44  1  0  0  0  0
 43 45  1  0  0  0  0
 44 45  2  0  0  0  0
 39 40  1  0  0  0  0
 42 46  1  0  0  0  0
 30 47  1  0  0  0  0
 30 48  1  0  0  0  0
 27 48  1  0  0  0  0
 49 50  1  0  0  0  0
 49 51  2  0  0  0  0
 50 52  2  0  0  0  0
 51 53  1  0  0  0  0
 52 54  1  0  0  0  0
 53 54  2  0  0  0  0
 48 52  1  0  0  0  0
 55 56  1  0  0  0  0
 55 57  2  0  0  0  0
 56 58  2  0  0  0  0
 57 59  1  0  0  0  0
 58 60  1  0  0  0  0
 59 60  2  0  0  0  0
 48 58  1  0  0  0  0
 19 47  1  0  0  0  0
 13 47  1  0  0  0  0
  6 47  1  0  0  0  0
 36 61  1  0  0  0  0
 62 63  3  0  0  0  0
 30 62  1  0  0  0  0
M  END
> <NMREDATA_VERSION>
1.1

> <NMREDATA_LEVEL>
0

> <NMREDATA_SOLVENT>
DCCl3

> <NMREDATA_FORMULA>
C50H44BF4N3OP2Rh

> <NMREDATA_SMILES>
F[B](F)(F)F.N#C[RhH](P(c1ccccc1)(c1ccccc1)c1ccccc1)(P(c1ccccc1)(c1ccccc1)c1ccccc1)/C(=N\c1ncccc1C)/c1ccccc1O

> <NMREDATA_ASSIGNMENT>
Rh30, 238.00, 30

> <NMREDATA_1D_103Rh>
238.00, L=Rh30

$$$$

  ACD/LABS03262411312D

 66 73  0  0  0  0  0  0  0  0  2 V2000
   27.0327   -7.3150    0.0000 B    0  5  0  0  0  0  0  0  0  0  0  0
   25.8670   -6.6420    0.0000 F    0  0  0  0  0  0  0  0  0  0  0  0
   27.7057   -6.1493    0.0000 F    0  0  0  0  0  0  0  0  0  0  0  0
   26.3596   -8.4807    0.0000 F    0  0  0  0  0  0  0  0  0  0  0  0
   28.1984   -7.9880    0.0000 F    0  0  0  0  0  0  0  0  0  0  0  0
   13.0375   -4.5482    0.0000 C    0  0  0  0  0  0  0  0  0  0  0  0
   14.0658   -5.3665    0.0000 N    0  0  0  0  0  0  0  0  0  0  0  0
   11.9355   -5.2754    0.0000 C    0  0  0  0  0  0  0  0  0  0  0  0
   13.6080   -6.6029    0.0000 C    0  0  0  0  0  0  0  0  0  0  0  0
   12.2834   -6.5426    0.0000 N    0  0  0  0  0  0  0  0  0  0  0  0
   12.9578   -3.2206    0.0000 C    0  0  0  0  0  0  0  0  0  0  0  0
   11.7685   -2.6251    0.0000 C    0  0  0  0  0  0  0  0  0  0  0  0
   10.7464   -4.6799    0.0000 C    0  0  0  0  0  0  0  0  0  0  0  0
   10.6665   -3.3522    0.0000 C    0  0  0  0  0  0  0  0  0  0  0  0
    9.6774  -12.4818    0.0000 C    0  0  0  0  0  0  0  0  0  0  0  0
    9.6700  -13.8175    0.0000 C    0  0  0  0  0  0  0  0  0  0  0  0
    8.5369  -11.8197    0.0000 C    0  0  0  0  0  0  0  0  0  0  0  0
    8.5133  -14.4751    0.0000 C    0  0  0  0  0  0  0  0  0  0  0  0
    7.3800  -12.4769    0.0000 C    0  0  0  0  0  0  0  0  0  0  0  0
    7.3685  -13.8047    0.0000 C    0  0  0  0  0  0  0  0  0  0  0  0
    8.8673  -10.9017    0.0000 C    0  0  0  0  0  0  0  0  0  0  0  0
   10.1811  -10.6756    0.0000 C    0  0  0  0  0  0  0  0  0  0  0  0
    8.0190   -9.8754    0.0000 C    0  0  0  0  0  0  0  0  0  0  0  0
   10.6385   -9.4279    0.0000 C    0  0  0  0  0  0  0  0  0  0  0  0
    8.4841   -8.6233    0.0000 C    0  0  0  0  0  0  0  0  0  0  0  0
    9.7905   -8.4021    0.0000 C    0  0  0  0  0  0  0  0  0  0  0  0
   10.8208  -14.1259    0.0000 C    0  0  0  0  0  0  0  0  0  0  0  0
   11.4917  -12.9808    0.0000 C    0  0  0  0  0  0  0  0  0  0  0  0
   11.4785  -15.2825    0.0000 C    0  0  0  0  0  0  0  0  0  0  0  0
   12.8274  -12.9883    0.0000 C    0  0  0  0  0  0  0  0  0  0  0  0
   12.8142  -15.2900    0.0000 C    0  0  0  0  0  0  0  0  0  0  0  0
   13.4850  -14.1449    0.0000 C    0  0  0  0  0  0  0  0  0  0  0  0
   21.5743   -9.6180    0.0000 C    0  0  0  0  0  0  0  0  0  0  0  0
   20.2596   -9.4347    0.0000 C    0  0  0  0  0  0  0  0  0  0  0  0
   22.0738  -10.8558    0.0000 C    0  0  0  0  0  0  0  0  0  0  0  0
   19.4405  -10.4813    0.0000 C    0  0  0  0  0  0  0  0  0  0  0  0
   21.2464  -11.9066    0.0000 C    0  0  0  0  0  0  0  0  0  0  0  0
   19.9273  -11.7156    0.0000 C    0  0  0  0  0  0  0  0  0  0  0  0
   16.0703   -8.8315    0.0000 Rh   0  3  0  0  0  0  0  0  0  0  0  0
   14.8486   -8.3292    0.0000 H    0  0  0  0  0  0  0  0  0  0  0  0
   16.3032   -5.9530    0.0000 C    0  0  0  0  0  0  0  0  0  0  0  0
   19.9074   -4.2301    0.0000 C    0  0  0  0  0  0  0  0  0  0  0  0
   18.8093   -3.4813    0.0000 C    0  0  0  0  0  0  0  0  0  0  0  0
   19.8049   -5.5597    0.0000 C    0  0  0  0  0  0  0  0  0  0  0  0
   17.6117   -4.0503    0.0000 C    0  0  0  0  0  0  0  0  0  0  0  0
   18.5989   -6.1329    0.0000 C    0  0  0  0  0  0  0  0  0  0  0  0
   17.5085   -5.3796    0.0000 C    0  0  0  0  0  0  0  0  0  0  0  0
   15.3530   -5.0161    0.0000 N    0  0  0  0  0  0  0  0  0  0  0  0
   10.8341  -11.8242    0.0000 P    0  0  0  0  0  0  0  0  0  0  0  0
   16.5622  -10.0737    0.0000 P    0  0  0  0  0  0  0  0  0  0  0  0
   11.7088  -11.3706    0.0000 C    0  0  0  0  0  0  0  0  0  0  0  0
   13.0452  -11.3256    0.0000 C    0  0  0  0  0  0  0  0  0  0  0  0
   11.0177  -10.2440    0.0000 C    0  0  0  0  0  0  0  0  0  0  0  0
   13.6705  -10.1555    0.0000 C    0  0  0  0  0  0  0  0  0  0  0  0
   11.6427   -9.0734    0.0000 C    0  0  0  0  0  0  0  0  0  0  0  0
   12.9714   -9.0335    0.0000 C    0  0  0  0  0  0  0  0  0  0  0  0
   18.0458  -13.3349    0.0000 C    0  0  0  0  0  0  0  0  0  0  0  0
   18.0057  -12.0058    0.0000 C    0  0  0  0  0  0  0  0  0  0  0  0
   16.9156  -14.0383    0.0000 C    0  0  0  0  0  0  0  0  0  0  0  0
   16.8312  -11.3729    0.0000 C    0  0  0  0  0  0  0  0  0  0  0  0
   15.7491  -13.4007    0.0000 C    0  0  0  0  0  0  0  0  0  0  0  0
   15.7012  -12.0767    0.0000 C    0  0  0  0  0  0  0  0  0  0  0  0
   17.3854   -8.6353    0.0000 Cl   0  0  0  0  0  0  0  0  0  0  0  0
   18.9123   -2.1556    0.0000 N    0  3  0  0  0  0  0  0  0  0  0  0
   20.1119   -1.5819    0.0000 O    0  5  0  0  0  0  0  0  0  0  0  0
   17.8157   -1.4035    0.0000 O    0  0  0  0  0  0  0  0  0  0  0  0
  1  2  1  0  0  0  0
  1  3  1  0  0  0  0
  1  4  1  0  0  0  0
  1  5  1  0  0  0  0
  6  7  1  0  0  0  0
  7  9  1  0  0  0  0
  8 10  1  0  0  0  0
  9 10  2  0  0  0  0
  6 11  1  0  0  0  0
  6  8  2  0  0  0  0
 11 12  2  0  0  0  0
  8 13  1  0  0  0  0
 12 14  1  0  0  0  0
 13 14  2  0  0  0  0
 15 16  1  0  0  0  0
 15 17  2  0  0  0  0
 16 18  2  0  0  0  0
 17 19  1  0  0  0  0
 18 20  1  0  0  0  0
 19 20  2  0  0  0  0
 21 22  1  0  0  0  0
 21 23  2  0  0  0  0
 22 24  2  0  0  0  0
 23 25  1  0  0  0  0
 24 26  1  0  0  0  0
 25 26  2  0  0  0  0
 27 28  1  0  0  0  0
 27 29  2  0  0  0  0
 28 30  2  0  0  0  0
 29 31  1  0  0  0  0
 30 32  1  0  0  0  0
 31 32  2  0  0  0  0
 33 34  1  0  0  0  0
 33 35  2  0  0  0  0
 34 36  2  0  0  0  0
 35 37  1  0  0  0  0
 36 38  1  0  0  0  0
 37 38  2  0  0  0  0
 39 40  1  0  0  0  0
 39 41  1  0  0  0  0
 42 43  1  0  0  0  0
 42 44  2  0  0  0  0
 43 45  2  0  0  0  0
 44 46  1  0  0  0  0
 45 47  1  0  0  0  0
 46 47  2  0  0  0  0
 41 47  1  0  0  0  0
 41 48  2  0  0  0  0
 39 49  1  0  0  0  0
 39 50  1  0  0  0  0
 36 50  1  0  0  0  0
 51 52  1  0  0  0  0
 51 53  2  0  0  0  0
 52 54  2  0  0  0  0
 53 55  1  0  0  0  0
 54 56  1  0  0  0  0
 55 56  2  0  0  0  0
 50 54  1  0  0  0  0
 57 58  1  0  0  0  0
 57 59  2  0  0  0  0
 58 60  2  0  0  0  0
 59 61  1  0  0  0  0
 60 62  1  0  0  0  0
 61 62  2  0  0  0  0
 50 60  1  0  0  0  0
 28 49  1  0  0  0  0
 22 49  1  0  0  0  0
 15 49  1  0  0  0  0
 39 63  1  0  0  0  0
 64 65  1  0  0  0  0
 64 66  2  0  0  0  0
 43 64  1  0  0  0  0
  7 48  1  0  0  0  0
M  END
> <NMREDATA_VERSION>
1.1

> <NMREDATA_LEVEL>
0

> <NMREDATA_SOLVENT>
DCCl3

> <NMREDATA_TEMPERATURE>
298

> <NMREDATA_FORMULA>
C50H44BClF4N4O2P2Rh

> <NMREDATA_SMILES>
F[B](F)(F)F.ON(=O)c1cccc(c1)/C(=N/n1cnc2c1cccc2)/[RhH](P(c1ccccc1)(c1ccccc1)c1ccccc1)(P(c1ccccc1)(c1ccccc1)c1ccccc1)Cl

> <NMREDATA_ASSIGNMENT>
Rh39, 984.00, 39

> <NMREDATA_1D_103Rh>
984.00, L=Rh39

$$$$

  ACD/LABS03262411322D

 50 54  0  0  0  0  0  0  0  0  2 V2000
   27.0327   -7.3150    0.0000 B    0  5  0  0  0  0  0  0  0  0  0  0
   25.8670   -6.6420    0.0000 F    0  0  0  0  0  0  0  0  0  0  0  0
   27.7057   -6.1493    0.0000 F    0  0  0  0  0  0  0  0  0  0  0  0
   26.3596   -8.4807    0.0000 F    0  0  0  0  0  0  0  0  0  0  0  0
   28.1984   -7.9880    0.0000 F    0  0  0  0  0  0  0  0  0  0  0  0
   15.4179  -12.1141    0.0000 C    0  0  0  0  0  0  0  0  0  0  0  0
   16.3079  -11.1257    0.0000 N    0  0  0  0  0  0  0  0  0  0  0  0
   16.0829  -13.2659    0.0000 C    0  0  0  0  0  0  0  0  0  0  0  0
   17.5229  -11.6666    0.0000 C    0  0  0  0  0  0  0  0  0  0  0  0
   17.3839  -12.9894    0.0000 N    0  0  0  0  0  0  0  0  0  0  0  0
   14.0879  -12.1141    0.0000 C    0  0  0  0  0  0  0  0  0  0  0  0
   13.4229  -13.2659    0.0000 C    0  0  0  0  0  0  0  0  0  0  0  0
   15.4179  -14.4177    0.0000 C    0  0  0  0  0  0  0  0  0  0  0  0
   14.0879  -14.4177    0.0000 C    0  0  0  0  0  0  0  0  0  0  0  0
   11.9982   -8.3269    0.0000 C    0  0  0  0  0  0  0  0  0  0  0  0
   10.6972   -8.6034    0.0000 C    0  0  0  0  0  0  0  0  0  0  0  0
   12.4092   -7.0620    0.0000 C    0  0  0  0  0  0  0  0  0  0  0  0
    9.8073   -7.6151    0.0000 C    0  0  0  0  0  0  0  0  0  0  0  0
   11.5192   -6.0736    0.0000 C    0  0  0  0  0  0  0  0  0  0  0  0
   10.2183   -6.3502    0.0000 C    0  0  0  0  0  0  0  0  0  0  0  0
   10.6348   -9.7943    0.0000 C    0  0  0  0  0  0  0  0  0  0  0  0
   11.8997  -10.2053    0.0000 C    0  0  0  0  0  0  0  0  0  0  0  0
    9.6464  -10.6842    0.0000 C    0  0  0  0  0  0  0  0  0  0  0  0
   12.1762  -11.5062    0.0000 C    0  0  0  0  0  0  0  0  0  0  0  0
    9.9230  -11.9851    0.0000 C    0  0  0  0  0  0  0  0  0  0  0  0
   11.1879  -12.3961    0.0000 C    0  0  0  0  0  0  0  0  0  0  0  0
   15.1414   -8.8364    0.0000 C    0  0  0  0  0  0  0  0  0  0  0  0
   13.8765   -8.4254    0.0000 C    0  0  0  0  0  0  0  0  0  0  0  0
   16.1298   -7.9464    0.0000 C    0  0  0  0  0  0  0  0  0  0  0  0
   13.6000   -7.1244    0.0000 C    0  0  0  0  0  0  0  0  0  0  0  0
   15.8533   -6.6455    0.0000 C    0  0  0  0  0  0  0  0  0  0  0  0
   14.5884   -6.2345    0.0000 C    0  0  0  0  0  0  0  0  0  0  0  0
   13.7781  -10.3037    0.0000 Rh   0  2  0  0  0  0  0  0  0  0  0  0
   14.6680  -11.2921    0.0000 H    0  0  0  0  0  0  0  0  0  0  0  0
   14.7664   -9.4137    0.0000 C    0  0  0  0  0  0  0  0  0  0  0  0
   13.9369   -5.5109    0.0000 C    0  0  0  0  0  0  0  0  0  0  0  0
   15.2018   -5.9219    0.0000 C    0  0  0  0  0  0  0  0  0  0  0  0
   12.9485   -6.4009    0.0000 C    0  0  0  0  0  0  0  0  0  0  0  0
   15.4783   -7.2229    0.0000 C    0  0  0  0  0  0  0  0  0  0  0  0
   13.2250   -7.7018    0.0000 C    0  0  0  0  0  0  0  0  0  0  0  0
   14.4899   -8.1128    0.0000 C    0  0  0  0  0  0  0  0  0  0  0  0
   16.0313   -9.8247    0.0000 N    0  0  0  0  0  0  0  0  0  0  0  0
   12.8881   -9.3153    0.0000 P    0  0  0  0  0  0  0  0  0  0  0  0
   12.7897  -11.1936    0.0000 Cl   0  0  0  0  0  0  0  0  0  0  0  0
   16.1902   -5.0320    0.0000 N    0  3  0  0  0  0  0  0  0  0  0  0
   17.4551   -5.4430    0.0000 O    0  5  0  0  0  0  0  0  0  0  0  0
   15.9136   -3.7311    0.0000 O    0  0  0  0  0  0  0  0  0  0  0  0
    9.3283   -5.3618    0.0000 F    0  0  0  0  0  0  0  0  0  0  0  0
   16.8416   -5.7555    0.0000 F    0  0  0  0  0  0  0  0  0  0  0  0
    8.9346  -12.8751    0.0000 F    0  0  0  0  0  0  0  0  0  0  0  0
  1  2  1  0  0  0  0
  1  3  1  0  0  0  0
  1  4  1  0  0  0  0
  1  5  1  0  0  0  0
  6  7  1  0  0  0  0
  7  9  1  0  0  0  0
  8 10  1  0  0  0  0
  9 10  2  0  0  0  0
  6 11  1  0  0  0  0
  6  8  2  0  0  0  0
 11 12  2  0  0  0  0
  8 13  1  0  0  0  0
 12 14  1  0  0  0  0
 13 14  2  0  0  0  0
 15 16  1  0  0  0  0
 15 17  2  0  0  0  0
 16 18  2  0  0  0  0
 17 19  1  0  0  0  0
 18 20  1  0  0  0  0
 19 20  2  0  0  0  0
 21 22  1  0  0  0  0
 21 23  2  0  0  0  0
 22 24  2  0  0  0  0
 23 25  1  0  0  0  0
 24 26  1  0  0  0  0
 25 26  2  0  0  0  0
 27 28  1  0  0  0  0
 27 29  2  0  0  0  0
 28 30  2  0  0  0  0
 29 31  1  0  0  0  0
 30 32  1  0  0  0  0
 31 32  2  0  0  0  0
 33 34  1  0  0  0  0
 33 35  1  0  0  0  0
 36 37  1  0  0  0  0
 36 38  2  0  0  0  0
 37 39  2  0  0  0  0
 38 40  1  0  0  0  0
 39 41  1  0  0  0  0
 40 41  2  0  0  0  0
 35 41  1  0  0  0  0
 35 42  2  0  0  0  0
 33 43  1  0  0  0  0
 28 43  1  0  0  0  0
 22 43  1  0  0  0  0
 15 43  1  0  0  0  0
 33 44  1  0  0  0  0
 45 46  1  0  0  0  0
 45 47  2  0  0  0  0
 37 45  1  0  0  0  0
  7 42  1  0  0  0  0
 20 48  1  0  0  0  0
 31 49  1  0  0  0  0
 25 50  1  0  0  0  0
M  END
> <NMREDATA_VERSION>
1.1

> <NMREDATA_LEVEL>
0

> <NMREDATA_SOLVENT>
DCCl3

> <NMREDATA_TEMPERATURE>
298

> <NMREDATA_FORMULA>
C32H25BClF7N4O2PRh

> <NMREDATA_SMILES>
F[B](F)(F)F.Fc1ccc(cc1)P([RhH](/C(=N\n1cnc2c1cccc2)/c1cccc(c1)N(=O)O)Cl)(c1ccc(cc1)F)c1ccc(cc1)F

> <NMREDATA_ASSIGNMENT>
Rh33, 997.00, 33

> <NMREDATA_1D_103Rh>
997.00, L=Rh33

$$$$

  ACD/LABS03262411342D

 59 66  0  0  0  0  0  0  0  0  2 V2000
    9.6774  -12.4818    0.0000 C    0  0  0  0  0  0  0  0  0  0  0  0
    9.6700  -13.8175    0.0000 C    0  0  0  0  0  0  0  0  0  0  0  0
    8.5369  -11.8197    0.0000 C    0  0  0  0  0  0  0  0  0  0  0  0
    8.5133  -14.4751    0.0000 C    0  0  0  0  0  0  0  0  0  0  0  0
    7.3800  -12.4769    0.0000 C    0  0  0  0  0  0  0  0  0  0  0  0
    7.3685  -13.8047    0.0000 C    0  0  0  0  0  0  0  0  0  0  0  0
    8.8673  -10.9017    0.0000 C    0  0  0  0  0  0  0  0  0  0  0  0
   10.1811  -10.6756    0.0000 C    0  0  0  0  0  0  0  0  0  0  0  0
    8.0190   -9.8754    0.0000 C    0  0  0  0  0  0  0  0  0  0  0  0
   10.6385   -9.4279    0.0000 C    0  0  0  0  0  0  0  0  0  0  0  0
    8.4841   -8.6233    0.0000 C    0  0  0  0  0  0  0  0  0  0  0  0
    9.7905   -8.4021    0.0000 C    0  0  0  0  0  0  0  0  0  0  0  0
   10.8208  -14.1259    0.0000 C    0  0  0  0  0  0  0  0  0  0  0  0
   11.4917  -12.9808    0.0000 C    0  0  0  0  0  0  0  0  0  0  0  0
   11.4785  -15.2825    0.0000 C    0  0  0  0  0  0  0  0  0  0  0  0
   12.8274  -12.9883    0.0000 C    0  0  0  0  0  0  0  0  0  0  0  0
   12.8142  -15.2900    0.0000 C    0  0  0  0  0  0  0  0  0  0  0  0
   13.4850  -14.1449    0.0000 C    0  0  0  0  0  0  0  0  0  0  0  0
   21.5743   -9.6180    0.0000 C    0  0  0  0  0  0  0  0  0  0  0  0
   20.2596   -9.4347    0.0000 C    0  0  0  0  0  0  0  0  0  0  0  0
   22.0738  -10.8558    0.0000 C    0  0  0  0  0  0  0  0  0  0  0  0
   19.4405  -10.4813    0.0000 C    0  0  0  0  0  0  0  0  0  0  0  0
   21.2464  -11.9066    0.0000 C    0  0  0  0  0  0  0  0  0  0  0  0
   19.9273  -11.7156    0.0000 C    0  0  0  0  0  0  0  0  0  0  0  0
   16.0703   -8.8315    0.0000 Rh   0  0  0  0  0  0  0  0  0  0  0  0
   14.8486   -8.3292    0.0000 H    0  0  0  0  0  0  0  0  0  0  0  0
   16.3032   -5.9530    0.0000 C    0  0  0  0  0  0  0  0  0  0  0  0
   19.9074   -4.2301    0.0000 C    0  0  0  0  0  0  0  0  0  0  0  0
   18.8093   -3.4813    0.0000 C    0  0  0  0  0  0  0  0  0  0  0  0
   19.8049   -5.5597    0.0000 C    0  0  0  0  0  0  0  0  0  0  0  0
   17.6117   -4.0503    0.0000 C    0  0  0  0  0  0  0  0  0  0  0  0
   18.5989   -6.1329    0.0000 C    0  0  0  0  0  0  0  0  0  0  0  0
   17.5085   -5.3796    0.0000 C    0  0  0  0  0  0  0  0  0  0  0  0
   15.3530   -5.0161    0.0000 N    0  0  0  0  0  0  0  0  0  0  0  0
   14.0748   -5.3752    0.0000 C    0  0  0  0  0  0  0  0  0  0  0  0
   13.7431   -6.6627    0.0000 N    0  0  0  0  0  0  0  0  0  0  0  0
   13.1215   -4.4508    0.0000 C    0  0  0  0  0  0  0  0  0  0  0  0
   12.4653   -7.0215    0.0000 C    0  0  0  0  0  0  0  0  0  0  0  0
   11.8387   -4.8018    0.0000 C    0  0  0  0  0  0  0  0  0  0  0  0
   11.5197   -6.0927    0.0000 C    0  0  0  0  0  0  0  0  0  0  0  0
   10.8341  -11.8242    0.0000 P    0  0  0  0  0  0  0  0  0  0  0  0
   16.5622  -10.0737    0.0000 P    0  0  0  0  0  0  0  0  0  0  0  0
   11.7088  -11.3706    0.0000 C    0  0  0  0  0  0  0  0  0  0  0  0
   13.0452  -11.3256    0.0000 C    0  0  0  0  0  0  0  0  0  0  0  0
   11.0177  -10.2440    0.0000 C    0  0  0  0  0  0  0  0  0  0  0  0
   13.6705  -10.1555    0.0000 C    0  0  0  0  0  0  0  0  0  0  0  0
   11.6427   -9.0734    0.0000 C    0  0  0  0  0  0  0  0  0  0  0  0
   12.9714   -9.0335    0.0000 C    0  0  0  0  0  0  0  0  0  0  0  0
   18.0458  -13.3349    0.0000 C    0  0  0  0  0  0  0  0  0  0  0  0
   18.0057  -12.0058    0.0000 C    0  0  0  0  0  0  0  0  0  0  0  0
   16.9156  -14.0383    0.0000 C    0  0  0  0  0  0  0  0  0  0  0  0
   16.8312  -11.3729    0.0000 C    0  0  0  0  0  0  0  0  0  0  0  0
   15.7491  -13.4007    0.0000 C    0  0  0  0  0  0  0  0  0  0  0  0
   15.7012  -12.0767    0.0000 C    0  0  0  0  0  0  0  0  0  0  0  0
   17.3854   -8.6353    0.0000 Cl   0  0  0  0  0  0  0  0  0  0  0  0
   13.4525   -3.1626    0.0000 C    0  0  0  0  0  0  0  0  0  0  0  0
   21.1060   -3.6545    0.0000 N    0  3  0  0  0  0  0  0  0  0  0  0
   22.2038   -4.4048    0.0000 O    0  5  0  0  0  0  0  0  0  0  0  0
   21.2069   -2.3287    0.0000 O    0  0  0  0  0  0  0  0  0  0  0  0
  1  2  1  0  0  0  0
  1  3  2  0  0  0  0
  2  4  2  0  0  0  0
  3  5  1  0  0  0  0
  4  6  1  0  0  0  0
  5  6  2  0  0  0  0
  7  8  1  0  0  0  0
  7  9  2  0  0  0  0
  8 10  2  0  0  0  0
  9 11  1  0  0  0  0
 10 12  1  0  0  0  0
 11 12  2  0  0  0  0
 13 14  1  0  0  0  0
 13 15  2  0  0  0  0
 14 16  2  0  0  0  0
 15 17  1  0  0  0  0
 16 18  1  0  0  0  0
 17 18  2  0  0  0  0
 19 20  1  0  0  0  0
 19 21  2  0  0  0  0
 20 22  2  0  0  0  0
 21 23  1  0  0  0  0
 22 24  1  0  0  0  0
 23 24  2  0  0  0  0
 25 26  1  0  0  0  0
 25 27  1  0  0  0  0
 28 29  1  0  0  0  0
 28 30  2  0  0  0  0
 29 31  2  0  0  0  0
 30 32  1  0  0  0  0
 31 33  1  0  0  0  0
 32 33  2  0  0  0  0
 27 33  1  0  0  0  0
 27 34  2  0  0  0  0
 35 36  1  0  0  0  0
 35 37  2  0  0  0  0
 36 38  2  0  0  0  0
 37 39  1  0  0  0  0
 38 40  1  0  0  0  0
 39 40  2  0  0  0  0
 34 35  1  0  0  0  0
 25 41  1  0  0  0  0
 25 42  1  0  0  0  0
 22 42  1  0  0  0  0
 43 44  1  0  0  0  0
 43 45  2  0  0  0  0
 44 46  2  0  0  0  0
 45 47  1  0  0  0  0
 46 48  1  0  0  0  0
 47 48  2  0  0  0  0
 42 46  1  0  0  0  0
 49 50  1  0  0  0  0
 49 51  2  0  0  0  0
 50 52  2  0  0  0  0
 51 53  1  0  0  0  0
 52 54  1  0  0  0  0
 53 54  2  0  0  0  0
 42 52  1  0  0  0  0
 14 41  1  0  0  0  0
  8 41  1  0  0  0  0
  1 41  1  0  0  0  0
 25 55  1  0  0  0  0
 37 56  1  0  0  0  0
 57 58  1  0  0  0  0
 57 59  2  0  0  0  0
 28 57  1  0  0  0  0
M  END
> <NMREDATA_VERSION>
1.1

> <NMREDATA_LEVEL>
0

> <NMREDATA_SOLVENT>
DCCl3

> <NMREDATA_FORMULA>
C49H45ClN3O2P2Rh

> <NMREDATA_SMILES>
Cc1cccnc1/N=C(\[RhH](P(c1ccccc1)(c1ccccc1)c1ccccc1)(P(c1ccccc1)(c1ccccc1)c1ccccc1)Cl)/c1ccc(cc1)N(=O)O

> <NMREDATA_ASSIGNMENT>
Rh25, 830.00, 25

> <NMREDATA_1D_103Rh>
830.00, L=Rh25

$$$$

  ACD/LABS03262411342D

 59 66  0  0  0  0  0  0  0  0  2 V2000
    9.6774  -12.4818    0.0000 C    0  0  0  0  0  0  0  0  0  0  0  0
    9.6700  -13.8175    0.0000 C    0  0  0  0  0  0  0  0  0  0  0  0
    8.5369  -11.8197    0.0000 C    0  0  0  0  0  0  0  0  0  0  0  0
    8.5133  -14.4751    0.0000 C    0  0  0  0  0  0  0  0  0  0  0  0
    7.3800  -12.4769    0.0000 C    0  0  0  0  0  0  0  0  0  0  0  0
    7.3685  -13.8047    0.0000 C    0  0  0  0  0  0  0  0  0  0  0  0
    8.8673  -10.9017    0.0000 C    0  0  0  0  0  0  0  0  0  0  0  0
   10.1811  -10.6756    0.0000 C    0  0  0  0  0  0  0  0  0  0  0  0
    8.0190   -9.8754    0.0000 C    0  0  0  0  0  0  0  0  0  0  0  0
   10.6385   -9.4279    0.0000 C    0  0  0  0  0  0  0  0  0  0  0  0
    8.4841   -8.6233    0.0000 C    0  0  0  0  0  0  0  0  0  0  0  0
    9.7905   -8.4021    0.0000 C    0  0  0  0  0  0  0  0  0  0  0  0
   10.8208  -14.1259    0.0000 C    0  0  0  0  0  0  0  0  0  0  0  0
   11.4917  -12.9808    0.0000 C    0  0  0  0  0  0  0  0  0  0  0  0
   11.4785  -15.2825    0.0000 C    0  0  0  0  0  0  0  0  0  0  0  0
   12.8274  -12.9883    0.0000 C    0  0  0  0  0  0  0  0  0  0  0  0
   12.8142  -15.2900    0.0000 C    0  0  0  0  0  0  0  0  0  0  0  0
   13.4850  -14.1449    0.0000 C    0  0  0  0  0  0  0  0  0  0  0  0
   21.5743   -9.6180    0.0000 C    0  0  0  0  0  0  0  0  0  0  0  0
   20.2596   -9.4347    0.0000 C    0  0  0  0  0  0  0  0  0  0  0  0
   22.0738  -10.8558    0.0000 C    0  0  0  0  0  0  0  0  0  0  0  0
   19.4405  -10.4813    0.0000 C    0  0  0  0  0  0  0  0  0  0  0  0
   21.2464  -11.9066    0.0000 C    0  0  0  0  0  0  0  0  0  0  0  0
   19.9273  -11.7156    0.0000 C    0  0  0  0  0  0  0  0  0  0  0  0
   16.0703   -8.8315    0.0000 Rh   0  0  0  0  0  0  0  0  0  0  0  0
   14.8486   -8.3292    0.0000 H    0  0  0  0  0  0  0  0  0  0  0  0
   16.3032   -5.9530    0.0000 C    0  0  0  0  0  0  0  0  0  0  0  0
   19.9074   -4.2301    0.0000 C    0  0  0  0  0  0  0  0  0  0  0  0
   18.8093   -3.4813    0.0000 C    0  0  0  0  0  0  0  0  0  0  0  0
   19.8049   -5.5597    0.0000 C    0  0  0  0  0  0  0  0  0  0  0  0
   17.6117   -4.0503    0.0000 C    0  0  0  0  0  0  0  0  0  0  0  0
   18.5989   -6.1329    0.0000 C    0  0  0  0  0  0  0  0  0  0  0  0
   17.5085   -5.3796    0.0000 C    0  0  0  0  0  0  0  0  0  0  0  0
   15.3530   -5.0161    0.0000 N    0  0  0  0  0  0  0  0  0  0  0  0
   14.0748   -5.3752    0.0000 C    0  0  0  0  0  0  0  0  0  0  0  0
   13.7431   -6.6627    0.0000 N    0  0  0  0  0  0  0  0  0  0  0  0
   13.1215   -4.4508    0.0000 C    0  0  0  0  0  0  0  0  0  0  0  0
   12.4653   -7.0215    0.0000 C    0  0  0  0  0  0  0  0  0  0  0  0
   11.8387   -4.8018    0.0000 C    0  0  0  0  0  0  0  0  0  0  0  0
   11.5197   -6.0927    0.0000 C    0  0  0  0  0  0  0  0  0  0  0  0
   10.8341  -11.8242    0.0000 P    0  0  0  0  0  0  0  0  0  0  0  0
   16.5622  -10.0737    0.0000 P    0  0  0  0  0  0  0  0  0  0  0  0
   11.7088  -11.3706    0.0000 C    0  0  0  0  0  0  0  0  0  0  0  0
   13.0452  -11.3256    0.0000 C    0  0  0  0  0  0  0  0  0  0  0  0
   11.0177  -10.2440    0.0000 C    0  0  0  0  0  0  0  0  0  0  0  0
   13.6705  -10.1555    0.0000 C    0  0  0  0  0  0  0  0  0  0  0  0
   11.6427   -9.0734    0.0000 C    0  0  0  0  0  0  0  0  0  0  0  0
   12.9714   -9.0335    0.0000 C    0  0  0  0  0  0  0  0  0  0  0  0
   18.0458  -13.3349    0.0000 C    0  0  0  0  0  0  0  0  0  0  0  0
   18.0057  -12.0058    0.0000 C    0  0  0  0  0  0  0  0  0  0  0  0
   16.9156  -14.0383    0.0000 C    0  0  0  0  0  0  0  0  0  0  0  0
   16.8312  -11.3729    0.0000 C    0  0  0  0  0  0  0  0  0  0  0  0
   15.7491  -13.4007    0.0000 C    0  0  0  0  0  0  0  0  0  0  0  0
   15.7012  -12.0767    0.0000 C    0  0  0  0  0  0  0  0  0  0  0  0
   17.3854   -8.6353    0.0000 Cl   0  0  0  0  0  0  0  0  0  0  0  0
   13.4525   -3.1626    0.0000 C    0  0  0  0  0  0  0  0  0  0  0  0
   21.1060   -3.6545    0.0000 N    0  3  0  0  0  0  0  0  0  0  0  0
   22.2038   -4.4048    0.0000 O    0  5  0  0  0  0  0  0  0  0  0  0
   21.2069   -2.3287    0.0000 O    0  0  0  0  0  0  0  0  0  0  0  0
  1  2  1  0  0  0  0
  1  3  2  0  0  0  0
  2  4  2  0  0  0  0
  3  5  1  0  0  0  0
  4  6  1  0  0  0  0
  5  6  2  0  0  0  0
  7  8  1  0  0  0  0
  7  9  2  0  0  0  0
  8 10  2  0  0  0  0
  9 11  1  0  0  0  0
 10 12  1  0  0  0  0
 11 12  2  0  0  0  0
 13 14  1  0  0  0  0
 13 15  2  0  0  0  0
 14 16  2  0  0  0  0
 15 17  1  0  0  0  0
 16 18  1  0  0  0  0
 17 18  2  0  0  0  0
 19 20  1  0  0  0  0
 19 21  2  0  0  0  0
 20 22  2  0  0  0  0
 21 23  1  0  0  0  0
 22 24  1  0  0  0  0
 23 24  2  0  0  0  0
 25 26  1  0  0  0  0
 25 27  1  0  0  0  0
 28 29  1  0  0  0  0
 28 30  2  0  0  0  0
 29 31  2  0  0  0  0
 30 32  1  0  0  0  0
 31 33  1  0  0  0  0
 32 33  2  0  0  0  0
 27 33  1  0  0  0  0
 27 34  2  0  0  0  0
 35 36  1  0  0  0  0
 35 37  2  0  0  0  0
 36 38  2  0  0  0  0
 37 39  1  0  0  0  0
 38 40  1  0  0  0  0
 39 40  2  0  0  0  0
 34 35  1  0  0  0  0
 25 41  1  0  0  0  0
 25 42  1  0  0  0  0
 22 42  1  0  0  0  0
 43 44  1  0  0  0  0
 43 45  2  0  0  0  0
 44 46  2  0  0  0  0
 45 47  1  0  0  0  0
 46 48  1  0  0  0  0
 47 48  2  0  0  0  0
 42 46  1  0  0  0  0
 49 50  1  0  0  0  0
 49 51  2  0  0  0  0
 50 52  2  0  0  0  0
 51 53  1  0  0  0  0
 52 54  1  0  0  0  0
 53 54  2  0  0  0  0
 42 52  1  0  0  0  0
 14 41  1  0  0  0  0
  8 41  1  0  0  0  0
  1 41  1  0  0  0  0
 25 55  1  0  0  0  0
 37 56  1  0  0  0  0
 57 58  1  0  0  0  0
 57 59  2  0  0  0  0
 28 57  1  0  0  0  0
M  END
> <NMREDATA_VERSION>
1.1

> <NMREDATA_LEVEL>
0

> <NMREDATA_SOLVENT>
DCCl3

> <NMREDATA_FORMULA>
C49H45ClN3O2P2Rh

> <NMREDATA_SMILES>
Cc1cccnc1/N=C(\[RhH](P(c1ccccc1)(c1ccccc1)c1ccccc1)(P(c1ccccc1)(c1ccccc1)c1ccccc1)Cl)/c1ccc(cc1)N(=O)O

> <NMREDATA_ASSIGNMENT>
Rh25, 830.00, 25

> <NMREDATA_1D_103Rh>
830.00, L=Rh25

$$$$

  ACD/LABS03262411352D

 59 66  0  0  0  0  0  0  0  0  1 V2000
    9.6774  -12.4818    0.0000 C    0  0  0  0  0  0  0  0  0  0  0  0
    9.6700  -13.8175    0.0000 C    0  0  0  0  0  0  0  0  0  0  0  0
    8.5369  -11.8197    0.0000 C    0  0  0  0  0  0  0  0  0  0  0  0
    8.5133  -14.4751    0.0000 C    0  0  0  0  0  0  0  0  0  0  0  0
    7.3800  -12.4769    0.0000 C    0  0  0  0  0  0  0  0  0  0  0  0
    7.3685  -13.8047    0.0000 C    0  0  0  0  0  0  0  0  0  0  0  0
    8.8673  -10.9017    0.0000 C    0  0  0  0  0  0  0  0  0  0  0  0
   10.1811  -10.6756    0.0000 C    0  0  0  0  0  0  0  0  0  0  0  0
    8.0190   -9.8754    0.0000 C    0  0  0  0  0  0  0  0  0  0  0  0
   10.6385   -9.4279    0.0000 C    0  0  0  0  0  0  0  0  0  0  0  0
    8.4841   -8.6233    0.0000 C    0  0  0  0  0  0  0  0  0  0  0  0
    9.7905   -8.4021    0.0000 C    0  0  0  0  0  0  0  0  0  0  0  0
   10.8208  -14.1259    0.0000 C    0  0  0  0  0  0  0  0  0  0  0  0
   11.4917  -12.9808    0.0000 C    0  0  0  0  0  0  0  0  0  0  0  0
   11.4785  -15.2825    0.0000 C    0  0  0  0  0  0  0  0  0  0  0  0
   12.8274  -12.9883    0.0000 C    0  0  0  0  0  0  0  0  0  0  0  0
   12.8142  -15.2900    0.0000 C    0  0  0  0  0  0  0  0  0  0  0  0
   13.4850  -14.1449    0.0000 C    0  0  0  0  0  0  0  0  0  0  0  0
   21.5743   -9.6180    0.0000 C    0  0  0  0  0  0  0  0  0  0  0  0
   20.2596   -9.4347    0.0000 C    0  0  0  0  0  0  0  0  0  0  0  0
   22.0738  -10.8558    0.0000 C    0  0  0  0  0  0  0  0  0  0  0  0
   19.4405  -10.4813    0.0000 C    0  0  0  0  0  0  0  0  0  0  0  0
   21.2464  -11.9066    0.0000 C    0  0  0  0  0  0  0  0  0  0  0  0
   19.9273  -11.7156    0.0000 C    0  0  0  0  0  0  0  0  0  0  0  0
   16.0703   -8.8315    0.0000 Rh   0  0  0  0  0  0  0  0  0  0  0  0
   14.8486   -8.3292    0.0000 H    0  0  0  0  0  0  0  0  0  0  0  0
   16.3032   -5.9530    0.0000 C    0  0  0  0  0  0  0  0  0  0  0  0
   19.9074   -4.2301    0.0000 C    0  0  0  0  0  0  0  0  0  0  0  0
   18.8093   -3.4813    0.0000 C    0  0  0  0  0  0  0  0  0  0  0  0
   19.8049   -5.5597    0.0000 C    0  0  0  0  0  0  0  0  0  0  0  0
   17.6117   -4.0503    0.0000 C    0  0  0  0  0  0  0  0  0  0  0  0
   18.5989   -6.1329    0.0000 C    0  0  0  0  0  0  0  0  0  0  0  0
   17.5085   -5.3796    0.0000 C    0  0  0  0  0  0  0  0  0  0  0  0
   15.3530   -5.0161    0.0000 N    0  0  0  0  0  0  0  0  0  0  0  0
   14.0748   -5.3752    0.0000 C    0  0  0  0  0  0  0  0  0  0  0  0
   13.7431   -6.6627    0.0000 N    0  0  0  0  0  0  0  0  0  0  0  0
   13.1215   -4.4508    0.0000 C    0  0  0  0  0  0  0  0  0  0  0  0
   12.4653   -7.0215    0.0000 C    0  0  0  0  0  0  0  0  0  0  0  0
   11.8387   -4.8018    0.0000 C    0  0  0  0  0  0  0  0  0  0  0  0
   11.5197   -6.0927    0.0000 C    0  0  0  0  0  0  0  0  0  0  0  0
   10.8341  -11.8242    0.0000 P    0  0  0  0  0  0  0  0  0  0  0  0
   16.5622  -10.0737    0.0000 P    0  0  0  0  0  0  0  0  0  0  0  0
   11.7088  -11.3706    0.0000 C    0  0  0  0  0  0  0  0  0  0  0  0
   13.0452  -11.3256    0.0000 C    0  0  0  0  0  0  0  0  0  0  0  0
   11.0177  -10.2440    0.0000 C    0  0  0  0  0  0  0  0  0  0  0  0
   13.6705  -10.1555    0.0000 C    0  0  0  0  0  0  0  0  0  0  0  0
   11.6427   -9.0734    0.0000 C    0  0  0  0  0  0  0  0  0  0  0  0
   12.9714   -9.0335    0.0000 C    0  0  0  0  0  0  0  0  0  0  0  0
   18.0458  -13.3349    0.0000 C    0  0  0  0  0  0  0  0  0  0  0  0
   18.0057  -12.0058    0.0000 C    0  0  0  0  0  0  0  0  0  0  0  0
   16.9156  -14.0383    0.0000 C    0  0  0  0  0  0  0  0  0  0  0  0
   16.8312  -11.3729    0.0000 C    0  0  0  0  0  0  0  0  0  0  0  0
   15.7491  -13.4007    0.0000 C    0  0  0  0  0  0  0  0  0  0  0  0
   15.7012  -12.0767    0.0000 C    0  0  0  0  0  0  0  0  0  0  0  0
   17.3854   -8.6353    0.0000 Cl   0  0  0  0  0  0  0  0  0  0  0  0
   13.4525   -3.1626    0.0000 C    0  0  0  0  0  0  0  0  0  0  0  0
   18.5078   -6.9705    0.0000 O    0  0  0  0  0  0  0  0  0  0  0  0
   20.6070   -5.9770    0.0000 O    0  0  0  0  0  0  0  0  0  0  0  0
   21.4402   -5.0155    0.0000 C    0  0  0  0  0  0  0  0  0  0  0  0
  1  2  1  0  0  0  0
  1  3  2  0  0  0  0
  2  4  2  0  0  0  0
  3  5  1  0  0  0  0
  4  6  1  0  0  0  0
  5  6  2  0  0  0  0
  7  8  1  0  0  0  0
  7  9  2  0  0  0  0
  8 10  2  0  0  0  0
  9 11  1  0  0  0  0
 10 12  1  0  0  0  0
 11 12  2  0  0  0  0
 13 14  1  0  0  0  0
 13 15  2  0  0  0  0
 14 16  2  0  0  0  0
 15 17  1  0  0  0  0
 16 18  1  0  0  0  0
 17 18  2  0  0  0  0
 19 20  1  0  0  0  0
 19 21  2  0  0  0  0
 20 22  2  0  0  0  0
 21 23  1  0  0  0  0
 22 24  1  0  0  0  0
 23 24  2  0  0  0  0
 25 26  1  0  0  0  0
 25 27  1  0  0  0  0
 28 29  1  0  0  0  0
 28 30  2  0  0  0  0
 29 31  2  0  0  0  0
 30 32  1  0  0  0  0
 31 33  1  0  0  0  0
 32 33  2  0  0  0  0
 27 33  1  0  0  0  0
 27 34  2  0  0  0  0
 35 36  1  0  0  0  0
 35 37  2  0  0  0  0
 36 38  2  0  0  0  0
 37 39  1  0  0  0  0
 38 40  1  0  0  0  0
 39 40  2  0  0  0  0
 34 35  1  0  0  0  0
 25 41  1  0  0  0  0
 25 42  1  0  0  0  0
 22 42  1  0  0  0  0
 43 44  1  0  0  0  0
 43 45  2  0  0  0  0
 44 46  2  0  0  0  0
 45 47  1  0  0  0  0
 46 48  1  0  0  0  0
 47 48  2  0  0  0  0
 42 46  1  0  0  0  0
 49 50  1  0  0  0  0
 49 51  2  0  0  0  0
 50 52  2  0  0  0  0
 51 53  1  0  0  0  0
 52 54  1  0  0  0  0
 53 54  2  0  0  0  0
 42 52  1  0  0  0  0
 14 41  1  0  0  0  0
  8 41  1  0  0  0  0
  1 41  1  0  0  0  0
 25 55  1  0  0  0  0
 37 56  1  0  0  0  0
 32 57  1  0  0  0  0
 30 58  1  0  0  0  0
 58 59  1  0  0  0  0
M  END
> <NMREDATA_VERSION>
1.1

> <NMREDATA_LEVEL>
0

> <NMREDATA_SOLVENT>
DCCl3

> <NMREDATA_FORMULA>
C50H46ClN2O2P2Rh

> <NMREDATA_SMILES>
COc1cccc(c1O)/C(=N/c1ncccc1C)/[RhH](P(c1ccccc1)(c1ccccc1)c1ccccc1)(P(c1ccccc1)(c1ccccc1)c1ccccc1)Cl

> <NMREDATA_ASSIGNMENT>
Rh25, 822.00, 25

> <NMREDATA_1D_103Rh>
822.00, L=Rh25

$$$$

  ACD/LABS03262411362D

 59 66  0  0  0  0  0  0  0  0  2 V2000
    9.6774  -12.4818    0.0000 C    0  0  0  0  0  0  0  0  0  0  0  0
    9.6700  -13.8175    0.0000 C    0  0  0  0  0  0  0  0  0  0  0  0
    8.5369  -11.8197    0.0000 C    0  0  0  0  0  0  0  0  0  0  0  0
    8.5133  -14.4751    0.0000 C    0  0  0  0  0  0  0  0  0  0  0  0
    7.3800  -12.4769    0.0000 C    0  0  0  0  0  0  0  0  0  0  0  0
    7.3685  -13.8047    0.0000 C    0  0  0  0  0  0  0  0  0  0  0  0
    8.8673  -10.9017    0.0000 C    0  0  0  0  0  0  0  0  0  0  0  0
   10.1811  -10.6756    0.0000 C    0  0  0  0  0  0  0  0  0  0  0  0
    8.0190   -9.8754    0.0000 C    0  0  0  0  0  0  0  0  0  0  0  0
   10.6385   -9.4279    0.0000 C    0  0  0  0  0  0  0  0  0  0  0  0
    8.4841   -8.6233    0.0000 C    0  0  0  0  0  0  0  0  0  0  0  0
    9.7905   -8.4021    0.0000 C    0  0  0  0  0  0  0  0  0  0  0  0
   10.8208  -14.1259    0.0000 C    0  0  0  0  0  0  0  0  0  0  0  0
   11.4917  -12.9808    0.0000 C    0  0  0  0  0  0  0  0  0  0  0  0
   11.4785  -15.2825    0.0000 C    0  0  0  0  0  0  0  0  0  0  0  0
   12.8274  -12.9883    0.0000 C    0  0  0  0  0  0  0  0  0  0  0  0
   12.8142  -15.2900    0.0000 C    0  0  0  0  0  0  0  0  0  0  0  0
   13.4850  -14.1449    0.0000 C    0  0  0  0  0  0  0  0  0  0  0  0
   21.5743   -9.6180    0.0000 C    0  0  0  0  0  0  0  0  0  0  0  0
   20.2596   -9.4347    0.0000 C    0  0  0  0  0  0  0  0  0  0  0  0
   22.0738  -10.8558    0.0000 C    0  0  0  0  0  0  0  0  0  0  0  0
   19.4405  -10.4813    0.0000 C    0  0  0  0  0  0  0  0  0  0  0  0
   21.2464  -11.9066    0.0000 C    0  0  0  0  0  0  0  0  0  0  0  0
   19.9273  -11.7156    0.0000 C    0  0  0  0  0  0  0  0  0  0  0  0
   16.0703   -8.8315    0.0000 Rh   0  0  0  0  0  0  0  0  0  0  0  0
   14.8486   -8.3292    0.0000 H    0  0  0  0  0  0  0  0  0  0  0  0
   16.3032   -5.9530    0.0000 C    0  0  0  0  0  0  0  0  0  0  0  0
   19.9074   -4.2301    0.0000 C    0  0  0  0  0  0  0  0  0  0  0  0
   18.8093   -3.4813    0.0000 C    0  0  0  0  0  0  0  0  0  0  0  0
   19.8049   -5.5597    0.0000 C    0  0  0  0  0  0  0  0  0  0  0  0
   17.6117   -4.0503    0.0000 C    0  0  0  0  0  0  0  0  0  0  0  0
   18.5989   -6.1329    0.0000 C    0  0  0  0  0  0  0  0  0  0  0  0
   17.5085   -5.3796    0.0000 C    0  0  0  0  0  0  0  0  0  0  0  0
   15.3530   -5.0161    0.0000 N    0  0  0  0  0  0  0  0  0  0  0  0
   14.0748   -5.3752    0.0000 C    0  0  0  0  0  0  0  0  0  0  0  0
   13.7431   -6.6627    0.0000 N    0  0  0  0  0  0  0  0  0  0  0  0
   13.1215   -4.4508    0.0000 C    0  0  0  0  0  0  0  0  0  0  0  0
   12.4653   -7.0215    0.0000 C    0  0  0  0  0  0  0  0  0  0  0  0
   11.8387   -4.8018    0.0000 C    0  0  0  0  0  0  0  0  0  0  0  0
   11.5197   -6.0927    0.0000 C    0  0  0  0  0  0  0  0  0  0  0  0
   10.8341  -11.8242    0.0000 P    0  0  0  0  0  0  0  0  0  0  0  0
   16.5622  -10.0737    0.0000 P    0  0  0  0  0  0  0  0  0  0  0  0
   11.7088  -11.3706    0.0000 C    0  0  0  0  0  0  0  0  0  0  0  0
   13.0452  -11.3256    0.0000 C    0  0  0  0  0  0  0  0  0  0  0  0
   11.0177  -10.2440    0.0000 C    0  0  0  0  0  0  0  0  0  0  0  0
   13.6705  -10.1555    0.0000 C    0  0  0  0  0  0  0  0  0  0  0  0
   11.6427   -9.0734    0.0000 C    0  0  0  0  0  0  0  0  0  0  0  0
   12.9714   -9.0335    0.0000 C    0  0  0  0  0  0  0  0  0  0  0  0
   18.0458  -13.3349    0.0000 C    0  0  0  0  0  0  0  0  0  0  0  0
   18.0057  -12.0058    0.0000 C    0  0  0  0  0  0  0  0  0  0  0  0
   16.9156  -14.0383    0.0000 C    0  0  0  0  0  0  0  0  0  0  0  0
   16.8312  -11.3729    0.0000 C    0  0  0  0  0  0  0  0  0  0  0  0
   15.7491  -13.4007    0.0000 C    0  0  0  0  0  0  0  0  0  0  0  0
   15.7012  -12.0767    0.0000 C    0  0  0  0  0  0  0  0  0  0  0  0
   17.3854   -8.6353    0.0000 Br   0  0  0  0  0  0  0  0  0  0  0  0
   13.4525   -3.1626    0.0000 C    0  0  0  0  0  0  0  0  0  0  0  0
   18.9123   -2.1556    0.0000 N    0  3  0  0  0  0  0  0  0  0  0  0
   20.1119   -1.5819    0.0000 O    0  5  0  0  0  0  0  0  0  0  0  0
   17.8157   -1.4035    0.0000 O    0  0  0  0  0  0  0  0  0  0  0  0
  1  2  1  0  0  0  0
  1  3  2  0  0  0  0
  2  4  2  0  0  0  0
  3  5  1  0  0  0  0
  4  6  1  0  0  0  0
  5  6  2  0  0  0  0
  7  8  1  0  0  0  0
  7  9  2  0  0  0  0
  8 10  2  0  0  0  0
  9 11  1  0  0  0  0
 10 12  1  0  0  0  0
 11 12  2  0  0  0  0
 13 14  1  0  0  0  0
 13 15  2  0  0  0  0
 14 16  2  0  0  0  0
 15 17  1  0  0  0  0
 16 18  1  0  0  0  0
 17 18  2  0  0  0  0
 19 20  1  0  0  0  0
 19 21  2  0  0  0  0
 20 22  2  0  0  0  0
 21 23  1  0  0  0  0
 22 24  1  0  0  0  0
 23 24  2  0  0  0  0
 25 26  1  0  0  0  0
 25 27  1  0  0  0  0
 28 29  1  0  0  0  0
 28 30  2  0  0  0  0
 29 31  2  0  0  0  0
 30 32  1  0  0  0  0
 31 33  1  0  0  0  0
 32 33  2  0  0  0  0
 27 33  1  0  0  0  0
 27 34  2  0  0  0  0
 35 36  1  0  0  0  0
 35 37  2  0  0  0  0
 36 38  2  0  0  0  0
 37 39  1  0  0  0  0
 38 40  1  0  0  0  0
 39 40  2  0  0  0  0
 34 35  1  0  0  0  0
 25 41  1  0  0  0  0
 25 42  1  0  0  0  0
 22 42  1  0  0  0  0
 43 44  1  0  0  0  0
 43 45  2  0  0  0  0
 44 46  2  0  0  0  0
 45 47  1  0  0  0  0
 46 48  1  0  0  0  0
 47 48  2  0  0  0  0
 42 46  1  0  0  0  0
 49 50  1  0  0  0  0
 49 51  2  0  0  0  0
 50 52  2  0  0  0  0
 51 53  1  0  0  0  0
 52 54  1  0  0  0  0
 53 54  2  0  0  0  0
 42 52  1  0  0  0  0
 14 41  1  0  0  0  0
  8 41  1  0  0  0  0
  1 41  1  0  0  0  0
 25 55  1  0  0  0  0
 37 56  1  0  0  0  0
 57 58  1  0  0  0  0
 57 59  2  0  0  0  0
 29 57  1  0  0  0  0
M  END
> <NMREDATA_VERSION>
1.1

> <NMREDATA_LEVEL>
0

> <NMREDATA_SOLVENT>
DCCl3

> <NMREDATA_FORMULA>
C49H45BrN3O2P2Rh

> <NMREDATA_SMILES>
Cc1cccnc1/N=C(\[RhH](P(c1ccccc1)(c1ccccc1)c1ccccc1)(P(c1ccccc1)(c1ccccc1)c1ccccc1)Br)/c1cccc(c1)N(=O)O

> <NMREDATA_ASSIGNMENT>
Rh25, 739.00, 25

> <NMREDATA_1D_103Rh>
739.00, L=Rh25

$$$$

  ACD/LABS03262411392D

 59 66  0  0  0  0  0  0  0  0  1 V2000
    9.6774  -12.4818    0.0000 C    0  0  0  0  0  0  0  0  0  0  0  0
    9.6700  -13.8175    0.0000 C    0  0  0  0  0  0  0  0  0  0  0  0
    8.5369  -11.8197    0.0000 C    0  0  0  0  0  0  0  0  0  0  0  0
    8.5133  -14.4751    0.0000 C    0  0  0  0  0  0  0  0  0  0  0  0
    7.3800  -12.4769    0.0000 C    0  0  0  0  0  0  0  0  0  0  0  0
    7.3685  -13.8047    0.0000 C    0  0  0  0  0  0  0  0  0  0  0  0
    8.8673  -10.9017    0.0000 C    0  0  0  0  0  0  0  0  0  0  0  0
   10.1811  -10.6756    0.0000 C    0  0  0  0  0  0  0  0  0  0  0  0
    8.0190   -9.8754    0.0000 C    0  0  0  0  0  0  0  0  0  0  0  0
   10.6385   -9.4279    0.0000 C    0  0  0  0  0  0  0  0  0  0  0  0
    8.4841   -8.6233    0.0000 C    0  0  0  0  0  0  0  0  0  0  0  0
    9.7905   -8.4021    0.0000 C    0  0  0  0  0  0  0  0  0  0  0  0
   10.8208  -14.1259    0.0000 C    0  0  0  0  0  0  0  0  0  0  0  0
   11.4917  -12.9808    0.0000 C    0  0  0  0  0  0  0  0  0  0  0  0
   11.4785  -15.2825    0.0000 C    0  0  0  0  0  0  0  0  0  0  0  0
   12.8274  -12.9883    0.0000 C    0  0  0  0  0  0  0  0  0  0  0  0
   12.8142  -15.2900    0.0000 C    0  0  0  0  0  0  0  0  0  0  0  0
   13.4850  -14.1449    0.0000 C    0  0  0  0  0  0  0  0  0  0  0  0
   21.5743   -9.6180    0.0000 C    0  0  0  0  0  0  0  0  0  0  0  0
   20.2596   -9.4347    0.0000 C    0  0  0  0  0  0  0  0  0  0  0  0
   22.0738  -10.8558    0.0000 C    0  0  0  0  0  0  0  0  0  0  0  0
   19.4405  -10.4813    0.0000 C    0  0  0  0  0  0  0  0  0  0  0  0
   21.2464  -11.9066    0.0000 C    0  0  0  0  0  0  0  0  0  0  0  0
   19.9273  -11.7156    0.0000 C    0  0  0  0  0  0  0  0  0  0  0  0
   16.0703   -8.8315    0.0000 Rh   0  0  0  0  0  0  0  0  0  0  0  0
   14.8486   -8.3292    0.0000 H    0  0  0  0  0  0  0  0  0  0  0  0
   16.3032   -5.9530    0.0000 C    0  0  0  0  0  0  0  0  0  0  0  0
   19.9074   -4.2301    0.0000 C    0  0  0  0  0  0  0  0  0  0  0  0
   18.8093   -3.4813    0.0000 C    0  0  0  0  0  0  0  0  0  0  0  0
   19.8049   -5.5597    0.0000 C    0  0  0  0  0  0  0  0  0  0  0  0
   17.6117   -4.0503    0.0000 C    0  0  0  0  0  0  0  0  0  0  0  0
   18.5989   -6.1329    0.0000 C    0  0  0  0  0  0  0  0  0  0  0  0
   17.5085   -5.3796    0.0000 C    0  0  0  0  0  0  0  0  0  0  0  0
   15.3530   -5.0161    0.0000 N    0  0  0  0  0  0  0  0  0  0  0  0
   14.0748   -5.3752    0.0000 C    0  0  0  0  0  0  0  0  0  0  0  0
   13.7431   -6.6627    0.0000 N    0  0  0  0  0  0  0  0  0  0  0  0
   13.1215   -4.4508    0.0000 C    0  0  0  0  0  0  0  0  0  0  0  0
   12.4653   -7.0215    0.0000 C    0  0  0  0  0  0  0  0  0  0  0  0
   11.8387   -4.8018    0.0000 C    0  0  0  0  0  0  0  0  0  0  0  0
   11.5197   -6.0927    0.0000 C    0  0  0  0  0  0  0  0  0  0  0  0
   10.8341  -11.8242    0.0000 As   0  0  0  0  0  0  0  0  0  0  0  0
   16.5622  -10.0737    0.0000 As   0  0  0  0  0  0  0  0  0  0  0  0
   11.7088  -11.3706    0.0000 C    0  0  0  0  0  0  0  0  0  0  0  0
   13.0452  -11.3256    0.0000 C    0  0  0  0  0  0  0  0  0  0  0  0
   11.0177  -10.2440    0.0000 C    0  0  0  0  0  0  0  0  0  0  0  0
   13.6705  -10.1555    0.0000 C    0  0  0  0  0  0  0  0  0  0  0  0
   11.6427   -9.0734    0.0000 C    0  0  0  0  0  0  0  0  0  0  0  0
   12.9714   -9.0335    0.0000 C    0  0  0  0  0  0  0  0  0  0  0  0
   18.0458  -13.3349    0.0000 C    0  0  0  0  0  0  0  0  0  0  0  0
   18.0057  -12.0058    0.0000 C    0  0  0  0  0  0  0  0  0  0  0  0
   16.9156  -14.0383    0.0000 C    0  0  0  0  0  0  0  0  0  0  0  0
   16.8312  -11.3729    0.0000 C    0  0  0  0  0  0  0  0  0  0  0  0
   15.7491  -13.4007    0.0000 C    0  0  0  0  0  0  0  0  0  0  0  0
   15.7012  -12.0767    0.0000 C    0  0  0  0  0  0  0  0  0  0  0  0
   17.3854   -8.6353    0.0000 Cl   0  0  0  0  0  0  0  0  0  0  0  0
   13.4525   -3.1626    0.0000 C    0  0  0  0  0  0  0  0  0  0  0  0
   18.5559   -6.8583    0.0000 O    0  0  0  0  0  0  0  0  0  0  0  0
   20.5269   -6.1853    0.0000 O    0  0  0  0  0  0  0  0  0  0  0  0
   22.1934   -5.8167    0.0000 C    0  0  0  0  0  0  0  0  0  0  0  0
  1  2  1  0  0  0  0
  1  3  2  0  0  0  0
  2  4  2  0  0  0  0
  3  5  1  0  0  0  0
  4  6  1  0  0  0  0
  5  6  2  0  0  0  0
  7  8  1  0  0  0  0
  7  9  2  0  0  0  0
  8 10  2  0  0  0  0
  9 11  1  0  0  0  0
 10 12  1  0  0  0  0
 11 12  2  0  0  0  0
 13 14  1  0  0  0  0
 13 15  2  0  0  0  0
 14 16  2  0  0  0  0
 15 17  1  0  0  0  0
 16 18  1  0  0  0  0
 17 18  2  0  0  0  0
 19 20  1  0  0  0  0
 19 21  2  0  0  0  0
 20 22  2  0  0  0  0
 21 23  1  0  0  0  0
 22 24  1  0  0  0  0
 23 24  2  0  0  0  0
 25 26  1  0  0  0  0
 25 27  1  0  0  0  0
 28 29  1  0  0  0  0
 28 30  2  0  0  0  0
 29 31  2  0  0  0  0
 30 32  1  0  0  0  0
 31 33  1  0  0  0  0
 32 33  2  0  0  0  0
 27 33  1  0  0  0  0
 27 34  2  0  0  0  0
 35 36  1  0  0  0  0
 35 37  2  0  0  0  0
 36 38  2  0  0  0  0
 37 39  1  0  0  0  0
 38 40  1  0  0  0  0
 39 40  2  0  0  0  0
 34 35  1  0  0  0  0
 25 41  1  0  0  0  0
 25 42  1  0  0  0  0
 22 42  1  0  0  0  0
 43 44  1  0  0  0  0
 43 45  2  0  0  0  0
 44 46  2  0  0  0  0
 45 47  1  0  0  0  0
 46 48  1  0  0  0  0
 47 48  2  0  0  0  0
 42 46  1  0  0  0  0
 49 50  1  0  0  0  0
 49 51  2  0  0  0  0
 50 52  2  0  0  0  0
 51 53  1  0  0  0  0
 52 54  1  0  0  0  0
 53 54  2  0  0  0  0
 42 52  1  0  0  0  0
 14 41  1  0  0  0  0
  8 41  1  0  0  0  0
  1 41  1  0  0  0  0
 25 55  1  0  0  0  0
 37 56  1  0  0  0  0
 32 57  1  0  0  0  0
 30 58  1  0  0  0  0
 58 59  1  0  0  0  0
M  END
> <NMREDATA_VERSION>
1.1

> <NMREDATA_LEVEL>
0

> <NMREDATA_SOLVENT>
DCCl3

> <NMREDATA_FORMULA>
C50H46As2ClN2O2Rh

> <NMREDATA_SMILES>
COc1cccc(c1O)/C(=N/c1ncccc1C)/[RhH]([AsH](c1ccccc1)(c1ccccc1)c1ccccc1)([AsH](c1ccccc1)(c1ccccc1)c1ccccc1)Cl

> <NMREDATA_ASSIGNMENT>
Rh25, 981.00, 25

> <NMREDATA_1D_103Rh>
981.00, L=Rh25

$$$$

  ACD/LABS03262411402D

 59 66  0  0  0  0  0  0  0  0  1 V2000
    9.6774  -12.4818    0.0000 C    0  0  0  0  0  0  0  0  0  0  0  0
    9.6700  -13.8175    0.0000 C    0  0  0  0  0  0  0  0  0  0  0  0
    8.5369  -11.8197    0.0000 C    0  0  0  0  0  0  0  0  0  0  0  0
    8.5133  -14.4751    0.0000 C    0  0  0  0  0  0  0  0  0  0  0  0
    7.3800  -12.4769    0.0000 C    0  0  0  0  0  0  0  0  0  0  0  0
    7.3685  -13.8047    0.0000 C    0  0  0  0  0  0  0  0  0  0  0  0
    8.8673  -10.9017    0.0000 C    0  0  0  0  0  0  0  0  0  0  0  0
   10.1811  -10.6756    0.0000 C    0  0  0  0  0  0  0  0  0  0  0  0
    8.0190   -9.8754    0.0000 C    0  0  0  0  0  0  0  0  0  0  0  0
   10.6385   -9.4279    0.0000 C    0  0  0  0  0  0  0  0  0  0  0  0
    8.4841   -8.6233    0.0000 C    0  0  0  0  0  0  0  0  0  0  0  0
    9.7905   -8.4021    0.0000 C    0  0  0  0  0  0  0  0  0  0  0  0
   10.8208  -14.1259    0.0000 C    0  0  0  0  0  0  0  0  0  0  0  0
   11.4917  -12.9808    0.0000 C    0  0  0  0  0  0  0  0  0  0  0  0
   11.4785  -15.2825    0.0000 C    0  0  0  0  0  0  0  0  0  0  0  0
   12.8274  -12.9883    0.0000 C    0  0  0  0  0  0  0  0  0  0  0  0
   12.8142  -15.2900    0.0000 C    0  0  0  0  0  0  0  0  0  0  0  0
   13.4850  -14.1449    0.0000 C    0  0  0  0  0  0  0  0  0  0  0  0
   21.5743   -9.6180    0.0000 C    0  0  0  0  0  0  0  0  0  0  0  0
   20.2596   -9.4347    0.0000 C    0  0  0  0  0  0  0  0  0  0  0  0
   22.0738  -10.8558    0.0000 C    0  0  0  0  0  0  0  0  0  0  0  0
   19.4405  -10.4813    0.0000 C    0  0  0  0  0  0  0  0  0  0  0  0
   21.2464  -11.9066    0.0000 C    0  0  0  0  0  0  0  0  0  0  0  0
   19.9273  -11.7156    0.0000 C    0  0  0  0  0  0  0  0  0  0  0  0
   16.0703   -8.8315    0.0000 Rh   0  0  0  0  0  0  0  0  0  0  0  0
   14.8486   -8.3292    0.0000 H    0  0  0  0  0  0  0  0  0  0  0  0
   16.3032   -5.9530    0.0000 C    0  0  0  0  0  0  0  0  0  0  0  0
   19.9074   -4.2301    0.0000 C    0  0  0  0  0  0  0  0  0  0  0  0
   18.8093   -3.4813    0.0000 C    0  0  0  0  0  0  0  0  0  0  0  0
   19.8049   -5.5597    0.0000 C    0  0  0  0  0  0  0  0  0  0  0  0
   17.6117   -4.0503    0.0000 C    0  0  0  0  0  0  0  0  0  0  0  0
   18.5989   -6.1329    0.0000 C    0  0  0  0  0  0  0  0  0  0  0  0
   17.5085   -5.3796    0.0000 C    0  0  0  0  0  0  0  0  0  0  0  0
   15.3530   -5.0161    0.0000 N    0  0  0  0  0  0  0  0  0  0  0  0
   14.0748   -5.3752    0.0000 C    0  0  0  0  0  0  0  0  0  0  0  0
   13.7431   -6.6627    0.0000 N    0  0  0  0  0  0  0  0  0  0  0  0
   13.1215   -4.4508    0.0000 C    0  0  0  0  0  0  0  0  0  0  0  0
   12.4653   -7.0215    0.0000 C    0  0  0  0  0  0  0  0  0  0  0  0
   11.8387   -4.8018    0.0000 C    0  0  0  0  0  0  0  0  0  0  0  0
   11.5197   -6.0927    0.0000 C    0  0  0  0  0  0  0  0  0  0  0  0
   10.8341  -11.8242    0.0000 As   0  0  0  0  0  0  0  0  0  0  0  0
   16.5622  -10.0737    0.0000 As   0  0  0  0  0  0  0  0  0  0  0  0
   11.7088  -11.3706    0.0000 C    0  0  0  0  0  0  0  0  0  0  0  0
   13.0452  -11.3256    0.0000 C    0  0  0  0  0  0  0  0  0  0  0  0
   11.0177  -10.2440    0.0000 C    0  0  0  0  0  0  0  0  0  0  0  0
   13.6705  -10.1555    0.0000 C    0  0  0  0  0  0  0  0  0  0  0  0
   11.6427   -9.0734    0.0000 C    0  0  0  0  0  0  0  0  0  0  0  0
   12.9714   -9.0335    0.0000 C    0  0  0  0  0  0  0  0  0  0  0  0
   18.0458  -13.3349    0.0000 C    0  0  0  0  0  0  0  0  0  0  0  0
   18.0057  -12.0058    0.0000 C    0  0  0  0  0  0  0  0  0  0  0  0
   16.9156  -14.0383    0.0000 C    0  0  0  0  0  0  0  0  0  0  0  0
   16.8312  -11.3729    0.0000 C    0  0  0  0  0  0  0  0  0  0  0  0
   15.7491  -13.4007    0.0000 C    0  0  0  0  0  0  0  0  0  0  0  0
   15.7012  -12.0767    0.0000 C    0  0  0  0  0  0  0  0  0  0  0  0
   17.3854   -8.6353    0.0000 Cl   0  0  0  0  0  0  0  0  0  0  0  0
   13.4525   -3.1626    0.0000 C    0  0  0  0  0  0  0  0  0  0  0  0
   18.5559   -6.8583    0.0000 O    0  0  0  0  0  0  0  0  0  0  0  0
   20.5269   -6.1853    0.0000 O    0  0  0  0  0  0  0  0  0  0  0  0
   22.1934   -5.8167    0.0000 C    0  0  0  0  0  0  0  0  0  0  0  0
  1  2  1  0  0  0  0
  1  3  2  0  0  0  0
  2  4  2  0  0  0  0
  3  5  1  0  0  0  0
  4  6  1  0  0  0  0
  5  6  2  0  0  0  0
  7  8  1  0  0  0  0
  7  9  2  0  0  0  0
  8 10  2  0  0  0  0
  9 11  1  0  0  0  0
 10 12  1  0  0  0  0
 11 12  2  0  0  0  0
 13 14  1  0  0  0  0
 13 15  2  0  0  0  0
 14 16  2  0  0  0  0
 15 17  1  0  0  0  0
 16 18  1  0  0  0  0
 17 18  2  0  0  0  0
 19 20  1  0  0  0  0
 19 21  2  0  0  0  0
 20 22  2  0  0  0  0
 21 23  1  0  0  0  0
 22 24  1  0  0  0  0
 23 24  2  0  0  0  0
 25 26  1  0  0  0  0
 25 27  1  0  0  0  0
 28 29  1  0  0  0  0
 28 30  2  0  0  0  0
 29 31  2  0  0  0  0
 30 32  1  0  0  0  0
 31 33  1  0  0  0  0
 32 33  2  0  0  0  0
 27 33  1  0  0  0  0
 27 34  2  0  0  0  0
 35 36  1  0  0  0  0
 35 37  2  0  0  0  0
 36 38  2  0  0  0  0
 37 39  1  0  0  0  0
 38 40  1  0  0  0  0
 39 40  2  0  0  0  0
 34 35  1  0  0  0  0
 25 41  1  0  0  0  0
 25 42  1  0  0  0  0
 22 42  1  0  0  0  0
 43 44  1  0  0  0  0
 43 45  2  0  0  0  0
 44 46  2  0  0  0  0
 45 47  1  0  0  0  0
 46 48  1  0  0  0  0
 47 48  2  0  0  0  0
 42 46  1  0  0  0  0
 49 50  1  0  0  0  0
 49 51  2  0  0  0  0
 50 52  2  0  0  0  0
 51 53  1  0  0  0  0
 52 54  1  0  0  0  0
 53 54  2  0  0  0  0
 42 52  1  0  0  0  0
 14 41  1  0  0  0  0
  8 41  1  0  0  0  0
  1 41  1  0  0  0  0
 25 55  1  0  0  0  0
 37 56  1  0  0  0  0
 32 57  1  0  0  0  0
 30 58  1  0  0  0  0
 58 59  1  0  0  0  0
M  END
> <NMREDATA_VERSION>
1.1

> <NMREDATA_LEVEL>
0

> <NMREDATA_SOLVENT>
DCCl3

> <NMREDATA_FORMULA>
C50H46As2ClN2O2Rh

> <NMREDATA_SMILES>
COc1cccc(c1O)/C(=N/c1ncccc1C)/[RhH]([AsH](c1ccccc1)(c1ccccc1)c1ccccc1)([AsH](c1ccccc1)(c1ccccc1)c1ccccc1)Cl

> <NMREDATA_ASSIGNMENT>
Rh25, 968.00, 25

> <NMREDATA_1D_103Rh>
968.00, L=Rh25

$$$$

  ACD/LABS03262411552D

 59 66  0  0  0  0  0  0  0  0  2 V2000
    9.6774  -12.4818    0.0000 C    0  0  0  0  0  0  0  0  0  0  0  0
    9.6700  -13.8175    0.0000 C    0  0  0  0  0  0  0  0  0  0  0  0
    8.5369  -11.8197    0.0000 C    0  0  0  0  0  0  0  0  0  0  0  0
    8.5133  -14.4751    0.0000 C    0  0  0  0  0  0  0  0  0  0  0  0
    7.3800  -12.4769    0.0000 C    0  0  0  0  0  0  0  0  0  0  0  0
    7.3685  -13.8047    0.0000 C    0  0  0  0  0  0  0  0  0  0  0  0
    8.8673  -10.9017    0.0000 C    0  0  0  0  0  0  0  0  0  0  0  0
   10.1811  -10.6756    0.0000 C    0  0  0  0  0  0  0  0  0  0  0  0
    8.0190   -9.8754    0.0000 C    0  0  0  0  0  0  0  0  0  0  0  0
   10.6385   -9.4279    0.0000 C    0  0  0  0  0  0  0  0  0  0  0  0
    8.4841   -8.6233    0.0000 C    0  0  0  0  0  0  0  0  0  0  0  0
    9.7905   -8.4021    0.0000 C    0  0  0  0  0  0  0  0  0  0  0  0
   10.8208  -14.1259    0.0000 C    0  0  0  0  0  0  0  0  0  0  0  0
   11.4917  -12.9808    0.0000 C    0  0  0  0  0  0  0  0  0  0  0  0
   11.4785  -15.2825    0.0000 C    0  0  0  0  0  0  0  0  0  0  0  0
   12.8274  -12.9883    0.0000 C    0  0  0  0  0  0  0  0  0  0  0  0
   12.8142  -15.2900    0.0000 C    0  0  0  0  0  0  0  0  0  0  0  0
   13.4850  -14.1449    0.0000 C    0  0  0  0  0  0  0  0  0  0  0  0
   21.5743   -9.6180    0.0000 C    0  0  0  0  0  0  0  0  0  0  0  0
   20.2596   -9.4347    0.0000 C    0  0  0  0  0  0  0  0  0  0  0  0
   22.0738  -10.8558    0.0000 C    0  0  0  0  0  0  0  0  0  0  0  0
   19.4405  -10.4813    0.0000 C    0  0  0  0  0  0  0  0  0  0  0  0
   21.2464  -11.9066    0.0000 C    0  0  0  0  0  0  0  0  0  0  0  0
   19.9273  -11.7156    0.0000 C    0  0  0  0  0  0  0  0  0  0  0  0
   16.0703   -8.8315    0.0000 Rh   0  0  0  0  0  0  0  0  0  0  0  0
   14.8486   -8.3292    0.0000 H    0  0  0  0  0  0  0  0  0  0  0  0
   16.3032   -5.9530    0.0000 C    0  0  0  0  0  0  0  0  0  0  0  0
   19.9074   -4.2301    0.0000 C    0  0  0  0  0  0  0  0  0  0  0  0
   18.8093   -3.4813    0.0000 C    0  0  0  0  0  0  0  0  0  0  0  0
   19.8049   -5.5597    0.0000 C    0  0  0  0  0  0  0  0  0  0  0  0
   17.6117   -4.0503    0.0000 C    0  0  0  0  0  0  0  0  0  0  0  0
   18.5989   -6.1329    0.0000 C    0  0  0  0  0  0  0  0  0  0  0  0
   17.5085   -5.3796    0.0000 C    0  0  0  0  0  0  0  0  0  0  0  0
   15.3530   -5.0161    0.0000 N    0  0  0  0  0  0  0  0  0  0  0  0
   14.0748   -5.3752    0.0000 C    0  0  0  0  0  0  0  0  0  0  0  0
   13.7431   -6.6627    0.0000 N    0  0  0  0  0  0  0  0  0  0  0  0
   13.1215   -4.4508    0.0000 C    0  0  0  0  0  0  0  0  0  0  0  0
   12.4653   -7.0215    0.0000 C    0  0  0  0  0  0  0  0  0  0  0  0
   11.8387   -4.8018    0.0000 C    0  0  0  0  0  0  0  0  0  0  0  0
   11.5197   -6.0927    0.0000 C    0  0  0  0  0  0  0  0  0  0  0  0
   10.8341  -11.8242    0.0000 As   0  0  0  0  0  0  0  0  0  0  0  0
   16.5622  -10.0737    0.0000 As   0  0  0  0  0  0  0  0  0  0  0  0
   11.7088  -11.3706    0.0000 C    0  0  0  0  0  0  0  0  0  0  0  0
   13.0452  -11.3256    0.0000 C    0  0  0  0  0  0  0  0  0  0  0  0
   11.0177  -10.2440    0.0000 C    0  0  0  0  0  0  0  0  0  0  0  0
   13.6705  -10.1555    0.0000 C    0  0  0  0  0  0  0  0  0  0  0  0
   11.6427   -9.0734    0.0000 C    0  0  0  0  0  0  0  0  0  0  0  0
   12.9714   -9.0335    0.0000 C    0  0  0  0  0  0  0  0  0  0  0  0
   18.0458  -13.3349    0.0000 C    0  0  0  0  0  0  0  0  0  0  0  0
   18.0057  -12.0058    0.0000 C    0  0  0  0  0  0  0  0  0  0  0  0
   16.9156  -14.0383    0.0000 C    0  0  0  0  0  0  0  0  0  0  0  0
   16.8312  -11.3729    0.0000 C    0  0  0  0  0  0  0  0  0  0  0  0
   15.7491  -13.4007    0.0000 C    0  0  0  0  0  0  0  0  0  0  0  0
   15.7012  -12.0767    0.0000 C    0  0  0  0  0  0  0  0  0  0  0  0
   17.3854   -8.6353    0.0000 Cl   0  0  0  0  0  0  0  0  0  0  0  0
   13.4525   -3.1626    0.0000 C    0  0  0  0  0  0  0  0  0  0  0  0
   18.9123   -2.1556    0.0000 N    0  3  0  0  0  0  0  0  0  0  0  0
   20.1119   -1.5819    0.0000 O    0  5  0  0  0  0  0  0  0  0  0  0
   17.8157   -1.4035    0.0000 O    0  0  0  0  0  0  0  0  0  0  0  0
  1  2  1  0  0  0  0
  1  3  2  0  0  0  0
  2  4  2  0  0  0  0
  3  5  1  0  0  0  0
  4  6  1  0  0  0  0
  5  6  2  0  0  0  0
  7  8  1  0  0  0  0
  7  9  2  0  0  0  0
  8 10  2  0  0  0  0
  9 11  1  0  0  0  0
 10 12  1  0  0  0  0
 11 12  2  0  0  0  0
 13 14  1  0  0  0  0
 13 15  2  0  0  0  0
 14 16  2  0  0  0  0
 15 17  1  0  0  0  0
 16 18  1  0  0  0  0
 17 18  2  0  0  0  0
 19 20  1  0  0  0  0
 19 21  2  0  0  0  0
 20 22  2  0  0  0  0
 21 23  1  0  0  0  0
 22 24  1  0  0  0  0
 23 24  2  0  0  0  0
 25 26  1  0  0  0  0
 25 27  1  0  0  0  0
 28 29  1  0  0  0  0
 28 30  2  0  0  0  0
 29 31  2  0  0  0  0
 30 32  1  0  0  0  0
 31 33  1  0  0  0  0
 32 33  2  0  0  0  0
 27 33  1  0  0  0  0
 27 34  2  0  0  0  0
 35 36  1  0  0  0  0
 35 37  2  0  0  0  0
 36 38  2  0  0  0  0
 37 39  1  0  0  0  0
 38 40  1  0  0  0  0
 39 40  2  0  0  0  0
 34 35  1  0  0  0  0
 25 41  1  0  0  0  0
 25 42  1  0  0  0  0
 22 42  1  0  0  0  0
 43 44  1  0  0  0  0
 43 45  2  0  0  0  0
 44 46  2  0  0  0  0
 45 47  1  0  0  0  0
 46 48  1  0  0  0  0
 47 48  2  0  0  0  0
 42 46  1  0  0  0  0
 49 50  1  0  0  0  0
 49 51  2  0  0  0  0
 50 52  2  0  0  0  0
 51 53  1  0  0  0  0
 52 54  1  0  0  0  0
 53 54  2  0  0  0  0
 42 52  1  0  0  0  0
 14 41  1  0  0  0  0
  8 41  1  0  0  0  0
  1 41  1  0  0  0  0
 25 55  1  0  0  0  0
 37 56  1  0  0  0  0
 57 58  1  0  0  0  0
 57 59  2  0  0  0  0
 29 57  1  0  0  0  0
M  END
> <NMREDATA_VERSION>
1.1

> <NMREDATA_LEVEL>
0

> <NMREDATA_SOLVENT>
DCCl3

> <NMREDATA_FORMULA>
C49H45As2ClN3O2Rh

> <NMREDATA_SMILES>
Cc1cccnc1/N=C(\[RhH]([AsH](c1ccccc1)(c1ccccc1)c1ccccc1)([AsH](c1ccccc1)(c1ccccc1)c1ccccc1)Cl)/c1cccc(c1)N(=O)O

> <NMREDATA_ASSIGNMENT>
Rh25, 947.00, 25

> <NMREDATA_1D_103Rh>
947.00, L=Rh25

$$$$

  ACD/LABS03262411562D

 57 64  0  0  0  0  0  0  0  0  2 V2000
    9.6774  -12.4818    0.0000 C    0  0  0  0  0  0  0  0  0  0  0  0
    9.6700  -13.8175    0.0000 C    0  0  0  0  0  0  0  0  0  0  0  0
    8.5369  -11.8197    0.0000 C    0  0  0  0  0  0  0  0  0  0  0  0
    8.5133  -14.4751    0.0000 C    0  0  0  0  0  0  0  0  0  0  0  0
    7.3800  -12.4769    0.0000 C    0  0  0  0  0  0  0  0  0  0  0  0
    7.3685  -13.8047    0.0000 C    0  0  0  0  0  0  0  0  0  0  0  0
    8.8673  -10.9017    0.0000 C    0  0  0  0  0  0  0  0  0  0  0  0
   10.1811  -10.6756    0.0000 C    0  0  0  0  0  0  0  0  0  0  0  0
    8.0190   -9.8754    0.0000 C    0  0  0  0  0  0  0  0  0  0  0  0
   10.6385   -9.4279    0.0000 C    0  0  0  0  0  0  0  0  0  0  0  0
    8.4841   -8.6233    0.0000 C    0  0  0  0  0  0  0  0  0  0  0  0
    9.7905   -8.4021    0.0000 C    0  0  0  0  0  0  0  0  0  0  0  0
   10.8208  -14.1259    0.0000 C    0  0  0  0  0  0  0  0  0  0  0  0
   11.4917  -12.9808    0.0000 C    0  0  0  0  0  0  0  0  0  0  0  0
   11.4785  -15.2825    0.0000 C    0  0  0  0  0  0  0  0  0  0  0  0
   12.8274  -12.9883    0.0000 C    0  0  0  0  0  0  0  0  0  0  0  0
   12.8142  -15.2900    0.0000 C    0  0  0  0  0  0  0  0  0  0  0  0
   13.4850  -14.1449    0.0000 C    0  0  0  0  0  0  0  0  0  0  0  0
   21.5743   -9.6180    0.0000 C    0  0  0  0  0  0  0  0  0  0  0  0
   20.2596   -9.4347    0.0000 C    0  0  0  0  0  0  0  0  0  0  0  0
   22.0738  -10.8558    0.0000 C    0  0  0  0  0  0  0  0  0  0  0  0
   19.4405  -10.4813    0.0000 C    0  0  0  0  0  0  0  0  0  0  0  0
   21.2464  -11.9066    0.0000 C    0  0  0  0  0  0  0  0  0  0  0  0
   19.9273  -11.7156    0.0000 C    0  0  0  0  0  0  0  0  0  0  0  0
   16.0703   -8.8315    0.0000 Rh   0  6  0  0  0  0  0  0  0  0  0  0
   14.8486   -8.3292    0.0000 H    0  0  0  0  0  0  0  0  0  0  0  0
   16.3032   -5.9530    0.0000 C    0  0  0  0  0  0  0  0  0  0  0  0
   19.9074   -4.2301    0.0000 C    0  0  0  0  0  0  0  0  0  0  0  0
   18.8093   -3.4813    0.0000 C    0  0  0  0  0  0  0  0  0  0  0  0
   19.8049   -5.5597    0.0000 C    0  0  0  0  0  0  0  0  0  0  0  0
   17.6117   -4.0503    0.0000 C    0  0  0  0  0  0  0  0  0  0  0  0
   18.5989   -6.1329    0.0000 C    0  0  0  0  0  0  0  0  0  0  0  0
   17.5085   -5.3796    0.0000 C    0  0  0  0  0  0  0  0  0  0  0  0
   15.3530   -5.0161    0.0000 N    0  0  0  0  0  0  0  0  0  0  0  0
   14.0748   -5.3752    0.0000 C    0  0  0  0  0  0  0  0  0  0  0  0
   13.7431   -6.6627    0.0000 N    0  0  0  0  0  0  0  0  0  0  0  0
   13.1215   -4.4508    0.0000 C    0  0  0  0  0  0  0  0  0  0  0  0
   12.4653   -7.0215    0.0000 C    0  0  0  0  0  0  0  0  0  0  0  0
   11.8387   -4.8018    0.0000 C    0  0  0  0  0  0  0  0  0  0  0  0
   11.5197   -6.0927    0.0000 C    0  0  0  0  0  0  0  0  0  0  0  0
   10.8341  -11.8242    0.0000 Sb   0  3  0  0  0  0  0  0  0  0  0  0
   16.5622  -10.0737    0.0000 Sb   0  3  0  0  0  0  0  0  0  0  0  0
   11.7088  -11.3706    0.0000 C    0  0  0  0  0  0  0  0  0  0  0  0
   13.0452  -11.3256    0.0000 C    0  0  0  0  0  0  0  0  0  0  0  0
   11.0177  -10.2440    0.0000 C    0  0  0  0  0  0  0  0  0  0  0  0
   13.6705  -10.1555    0.0000 C    0  0  0  0  0  0  0  0  0  0  0  0
   11.6427   -9.0734    0.0000 C    0  0  0  0  0  0  0  0  0  0  0  0
   12.9714   -9.0335    0.0000 C    0  0  0  0  0  0  0  0  0  0  0  0
   18.0458  -13.3349    0.0000 C    0  0  0  0  0  0  0  0  0  0  0  0
   18.0057  -12.0058    0.0000 C    0  0  0  0  0  0  0  0  0  0  0  0
   16.9156  -14.0383    0.0000 C    0  0  0  0  0  0  0  0  0  0  0  0
   16.8312  -11.3729    0.0000 C    0  0  0  0  0  0  0  0  0  0  0  0
   15.7491  -13.4007    0.0000 C    0  0  0  0  0  0  0  0  0  0  0  0
   15.7012  -12.0767    0.0000 C    0  0  0  0  0  0  0  0  0  0  0  0
   17.3854   -8.6353    0.0000 Cl   0  0  0  0  0  0  0  0  0  0  0  0
   13.4525   -3.1626    0.0000 C    0  0  0  0  0  0  0  0  0  0  0  0
   16.8093   -3.6214    0.0000 O    0  0  0  0  0  0  0  0  0  0  0  0
  1  2  1  0  0  0  0
  1  3  2  0  0  0  0
  2  4  2  0  0  0  0
  3  5  1  0  0  0  0
  4  6  1  0  0  0  0
  5  6  2  0  0  0  0
  7  8  1  0  0  0  0
  7  9  2  0  0  0  0
  8 10  2  0  0  0  0
  9 11  1  0  0  0  0
 10 12  1  0  0  0  0
 11 12  2  0  0  0  0
 13 14  1  0  0  0  0
 13 15  2  0  0  0  0
 14 16  2  0  0  0  0
 15 17  1  0  0  0  0
 16 18  1  0  0  0  0
 17 18  2  0  0  0  0
 19 20  1  0  0  0  0
 19 21  2  0  0  0  0
 20 22  2  0  0  0  0
 21 23  1  0  0  0  0
 22 24  1  0  0  0  0
 23 24  2  0  0  0  0
 25 26  1  0  0  0  0
 25 27  1  0  0  0  0
 28 29  1  0  0  0  0
 28 30  2  0  0  0  0
 29 31  2  0  0  0  0
 30 32  1  0  0  0  0
 31 33  1  0  0  0  0
 32 33  2  0  0  0  0
 27 33  1  0  0  0  0
 27 34  2  0  0  0  0
 35 36  1  0  0  0  0
 35 37  2  0  0  0  0
 36 38  2  0  0  0  0
 37 39  1  0  0  0  0
 38 40  1  0  0  0  0
 39 40  2  0  0  0  0
 34 35  1  0  0  0  0
 25 41  1  0  0  0  0
 25 42  1  0  0  0  0
 22 42  1  0  0  0  0
 43 44  1  0  0  0  0
 43 45  2  0  0  0  0
 44 46  2  0  0  0  0
 45 47  1  0  0  0  0
 46 48  1  0  0  0  0
 47 48  2  0  0  0  0
 42 46  1  0  0  0  0
 49 50  1  0  0  0  0
 49 51  2  0  0  0  0
 50 52  2  0  0  0  0
 51 53  1  0  0  0  0
 52 54  1  0  0  0  0
 53 54  2  0  0  0  0
 42 52  1  0  0  0  0
 14 41  1  0  0  0  0
  8 41  1  0  0  0  0
  1 41  1  0  0  0  0
 25 55  1  0  0  0  0
 37 56  1  0  0  0  0
 31 57  1  0  0  0  0
M  END
> <NMREDATA_VERSION>
1.1

> <NMREDATA_LEVEL>
0

> <NMREDATA_SOLVENT>
DCCl3

> <NMREDATA_FORMULA>
C49H44ClN2ORhSb2

> <NMREDATA_SMILES>
Oc1ccccc1/C(=N/c1ncccc1C)/[RhH]([SbH](c1ccccc1)(c1ccccc1)c1ccccc1)([SbH](c1ccccc1)(c1ccccc1)c1ccccc1)Cl

> <NMREDATA_ASSIGNMENT>
Rh25, 800.00, 25

> <NMREDATA_1D_103Rh>
800.00, L=Rh25

$$$$

  ACD/LABS03262412072D

 38 40  0  0  0  0  0  0  0  0  1 V2000
    9.3439  -14.4111    0.0000 O    0  0  0  0  0  0  0  0  0  0  0  0
    9.5716  -13.1020    0.0000 N    0  0  0  0  0  0  0  0  0  0  0  0
   10.8239  -12.6450    0.0000 C    0  0  0  0  0  0  0  0  0  0  0  0
   11.8412  -13.5023    0.0000 C    0  0  0  0  0  0  0  0  0  0  0  0
   11.0557  -11.3438    0.0000 C    0  0  0  0  0  0  0  0  0  0  0  0
   10.0309  -10.4913    0.0000 C    0  0  0  0  0  0  0  0  0  0  0  0
   12.3082  -10.8872    0.0000 N    0  0  0  0  0  0  0  0  0  0  0  0
   12.5313   -9.5701    0.0000 O    0  0  0  0  0  0  0  0  0  0  0  0
   18.2333  -14.3904    0.0000 O    0  0  0  0  0  0  0  0  0  0  0  0
   16.9825  -13.9451    0.0000 N    0  0  0  0  0  0  0  0  0  0  0  0
   16.7488  -12.6355    0.0000 C    0  0  0  0  0  0  0  0  0  0  0  0
   17.7585  -11.7762    0.0000 C    0  0  0  0  0  0  0  0  0  0  0  0
   15.4937  -12.1820    0.0000 C    0  0  0  0  0  0  0  0  0  0  0  0
   14.4844  -13.0415    0.0000 C    0  0  0  0  0  0  0  0  0  0  0  0
   15.2601  -10.8727    0.0000 N    0  0  0  0  0  0  0  0  0  0  0  0
   14.0047  -10.4194    0.0000 O    0  0  0  0  0  0  0  0  0  0  0  0
   13.7756   -9.1178    0.0000 Rh   0  0  0  0  0  0  0  0  0  0  0  0
   15.0849   -8.8842    0.0000 C    0  0  0  0  0  0  0  0  0  0  0  0
   15.9367   -9.8979    0.0000 C    0  0  0  0  0  0  0  0  0  0  0  0
   13.5421   -7.8084    0.0000 P    0  0  0  0  0  0  0  0  0  0  0  0
   11.5789   -9.1977    0.0000 C    0  0  0  0  0  0  0  0  0  0  0  0
   12.2247   -8.0466    0.0000 C    0  0  0  0  0  0  0  0  0  0  0  0
   10.2519   -9.2060    0.0000 C    0  0  0  0  0  0  0  0  0  0  0  0
   11.5594   -6.8942    0.0000 C    0  0  0  0  0  0  0  0  0  0  0  0
    9.5789   -8.0580    0.0000 C    0  0  0  0  0  0  0  0  0  0  0  0
   10.2329   -6.9018    0.0000 C    0  0  0  0  0  0  0  0  0  0  0  0
   11.8117   -4.7406    0.0000 C    0  0  0  0  0  0  0  0  0  0  0  0
   12.0531   -6.0458    0.0000 C    0  0  0  0  0  0  0  0  0  0  0  0
   12.8336   -3.8845    0.0000 C    0  0  0  0  0  0  0  0  0  0  0  0
   13.3007   -6.5032    0.0000 C    0  0  0  0  0  0  0  0  0  0  0  0
   14.0844   -4.3298    0.0000 C    0  0  0  0  0  0  0  0  0  0  0  0
   14.3181   -5.6395    0.0000 C    0  0  0  0  0  0  0  0  0  0  0  0
   17.3441   -6.6581    0.0000 C    0  0  0  0  0  0  0  0  0  0  0  0
   16.3314   -5.8089    0.0000 C    0  0  0  0  0  0  0  0  0  0  0  0
   17.1210   -7.9752    0.0000 C    0  0  0  0  0  0  0  0  0  0  0  0
   15.0789   -6.2655    0.0000 C    0  0  0  0  0  0  0  0  0  0  0  0
   15.8685   -8.4318    0.0000 C    0  0  0  0  0  0  0  0  0  0  0  0
   14.8514   -7.5749    0.0000 C    0  0  0  0  0  0  0  0  0  0  0  0
  1  2  1  0  0  0  0
  2  3  2  0  0  0  0
  3  4  1  0  0  0  0
  3  5  1  0  0  0  0
  5  6  1  0  0  0  0
  5  7  2  0  0  0  0
  7  8  1  0  0  0  0
  9 10  1  0  0  0  0
 10 11  2  0  0  0  0
 11 12  1  0  0  0  0
 11 13  1  0  0  0  0
 13 14  1  0  0  0  0
 13 15  2  0  0  0  0
 15 16  1  0  0  0  0
 16 17  1  0  0  0  0
  8 17  1  0  0  0  0
 17 18  1  0  0  0  0
 18 19  2  0  0  0  0
 17 20  1  0  0  0  0
 21 22  1  0  0  0  0
 21 23  2  0  0  0  0
 22 24  2  0  0  0  0
 23 25  1  0  0  0  0
 24 26  1  0  0  0  0
 25 26  2  0  0  0  0
 20 22  1  0  0  0  0
 27 28  1  0  0  0  0
 27 29  2  0  0  0  0
 28 30  2  0  0  0  0
 29 31  1  0  0  0  0
 30 32  1  0  0  0  0
 31 32  2  0  0  0  0
 20 30  1  0  0  0  0
 33 34  1  0  0  0  0
 33 35  2  0  0  0  0
 34 36  2  0  0  0  0
 35 37  1  0  0  0  0
 36 38  1  0  0  0  0
 37 38  2  0  0  0  0
 20 38  1  0  0  0  0
M  END
> <NMREDATA_VERSION>
1.1

> <NMREDATA_LEVEL>
0

> <NMREDATA_SOLVENT>
DCCl3

> <NMREDATA_TEMPERATURE>
298

> <NMREDATA_FORMULA>
C28H33N4O4PRh

> <NMREDATA_SMILES>
C=C[Rh](P(c1ccccc1)(c1ccccc1)c1ccccc1)(O/N=C(/C(=N/O)/C)\C)O/N=C(/C(=N/O)/C)\C

> <NMREDATA_ASSIGNMENT>
Rh17, 2145.00, 17

> <NMREDATA_1D_103Rh>
2145.00, L=Rh17

$$$$

  ACD/LABS03262412072D

 23 22  0  0  0  0  0  0  0  0  1 V2000
    9.3439  -14.4111    0.0000 O    0  0  0  0  0  0  0  0  0  0  0  0
    9.5716  -13.1020    0.0000 N    0  0  0  0  0  0  0  0  0  0  0  0
   10.8239  -12.6450    0.0000 C    0  0  0  0  0  0  0  0  0  0  0  0
   11.8412  -13.5023    0.0000 C    0  0  0  0  0  0  0  0  0  0  0  0
   11.0557  -11.3438    0.0000 C    0  0  0  0  0  0  0  0  0  0  0  0
   10.0309  -10.4913    0.0000 C    0  0  0  0  0  0  0  0  0  0  0  0
   12.3082  -10.8872    0.0000 N    0  0  0  0  0  0  0  0  0  0  0  0
   12.5313   -9.5701    0.0000 O    0  0  0  0  0  0  0  0  0  0  0  0
   18.2333  -14.3904    0.0000 O    0  0  0  0  0  0  0  0  0  0  0  0
   16.9825  -13.9451    0.0000 N    0  0  0  0  0  0  0  0  0  0  0  0
   16.7488  -12.6355    0.0000 C    0  0  0  0  0  0  0  0  0  0  0  0
   17.7585  -11.7762    0.0000 C    0  0  0  0  0  0  0  0  0  0  0  0
   15.4937  -12.1820    0.0000 C    0  0  0  0  0  0  0  0  0  0  0  0
   14.4844  -13.0415    0.0000 C    0  0  0  0  0  0  0  0  0  0  0  0
   15.2601  -10.8727    0.0000 N    0  0  0  0  0  0  0  0  0  0  0  0
   14.0047  -10.4194    0.0000 O    0  0  0  0  0  0  0  0  0  0  0  0
   13.7756   -9.1178    0.0000 Rh   0  0  0  0  0  0  0  0  0  0  0  0
   15.0849   -8.8842    0.0000 C    0  0  0  0  0  0  0  0  0  0  0  0
   15.9367   -9.8979    0.0000 C    0  0  0  0  0  0  0  0  0  0  0  0
   13.5421   -7.8084    0.0000 P    0  0  0  0  0  0  0  0  0  0  0  0
   12.2247   -8.0466    0.0000 C    0  0  0  0  0  0  0  0  0  0  0  0
   13.3007   -6.5032    0.0000 C    0  0  0  0  0  0  0  0  0  0  0  0
   14.8514   -7.5749    0.0000 C    0  0  0  0  0  0  0  0  0  0  0  0
  1  2  1  0  0  0  0
  2  3  2  0  0  0  0
  3  4  1  0  0  0  0
  3  5  1  0  0  0  0
  5  6  1  0  0  0  0
  5  7  2  0  0  0  0
  7  8  1  0  0  0  0
  9 10  1  0  0  0  0
 10 11  2  0  0  0  0
 11 12  1  0  0  0  0
 11 13  1  0  0  0  0
 13 14  1  0  0  0  0
 13 15  2  0  0  0  0
 15 16  1  0  0  0  0
 16 17  1  0  0  0  0
  8 17  1  0  0  0  0
 17 18  1  0  0  0  0
 18 19  2  0  0  0  0
 17 20  1  0  0  0  0
 20 21  1  0  0  0  0
 20 22  1  0  0  0  0
 20 23  1  0  0  0  0
M  END
> <NMREDATA_VERSION>
1.1

> <NMREDATA_LEVEL>
0

> <NMREDATA_SOLVENT>
DCCl3

> <NMREDATA_TEMPERATURE>
298

> <NMREDATA_FORMULA>
C13H27N4O4PRh

> <NMREDATA_SMILES>
C=C[Rh](P(C)(C)C)(O/N=C(/C(=N/O)/C)\C)O/N=C(/C(=N/O)/C)\C

> <NMREDATA_ASSIGNMENT>
Rh17, 2017.00, 17

> <NMREDATA_1D_103Rh>
2017.00, L=Rh17

$$$$

  ACD/LABS03262412082D

 41 43  0  0  0  0  0  0  0  0  1 V2000
    8.7953   -7.8438    0.0000 C    0  0  0  0  0  0  0  0  0  0  0  0
    8.7953   -9.1738    0.0000 C    0  0  0  0  0  0  0  0  0  0  0  0
    7.6434   -7.1788    0.0000 C    0  0  0  0  0  0  0  0  0  0  0  0
    7.6434   -9.8388    0.0000 C    0  0  0  0  0  0  0  0  0  0  0  0
    6.4917   -7.8438    0.0000 C    0  0  0  0  0  0  0  0  0  0  0  0
    6.4917   -9.1738    0.0000 C    0  0  0  0  0  0  0  0  0  0  0  0
    9.3439  -14.4111    0.0000 O    0  0  0  0  0  0  0  0  0  0  0  0
    9.5716  -13.1020    0.0000 N    0  0  0  0  0  0  0  0  0  0  0  0
   10.8239  -12.6450    0.0000 C    0  0  0  0  0  0  0  0  0  0  0  0
   11.8412  -13.5023    0.0000 C    0  0  0  0  0  0  0  0  0  0  0  0
   11.0557  -11.3438    0.0000 C    0  0  0  0  0  0  0  0  0  0  0  0
   10.0309  -10.4913    0.0000 C    0  0  0  0  0  0  0  0  0  0  0  0
   12.3082  -10.8872    0.0000 N    0  0  0  0  0  0  0  0  0  0  0  0
   12.5313   -9.5701    0.0000 O    0  0  0  0  0  0  0  0  0  0  0  0
   18.2333  -14.3904    0.0000 O    0  0  0  0  0  0  0  0  0  0  0  0
   16.9825  -13.9451    0.0000 N    0  0  0  0  0  0  0  0  0  0  0  0
   16.7488  -12.6355    0.0000 C    0  0  0  0  0  0  0  0  0  0  0  0
   17.7585  -11.7762    0.0000 C    0  0  0  0  0  0  0  0  0  0  0  0
   15.4937  -12.1820    0.0000 C    0  0  0  0  0  0  0  0  0  0  0  0
   14.4844  -13.0415    0.0000 C    0  0  0  0  0  0  0  0  0  0  0  0
   15.2601  -10.8727    0.0000 N    0  0  0  0  0  0  0  0  0  0  0  0
   14.0047  -10.4194    0.0000 O    0  0  0  0  0  0  0  0  0  0  0  0
   13.7756   -9.1178    0.0000 Rh   0  0  0  0  0  0  0  0  0  0  0  0
   15.0849   -8.8842    0.0000 C    0  0  0  0  0  0  0  0  0  0  0  0
   15.9367   -9.8979    0.0000 C    0  0  0  0  0  0  0  0  0  0  0  0
   13.5421   -7.8084    0.0000 P    0  0  0  0  0  0  0  0  0  0  0  0
   12.2247   -8.0466    0.0000 O    0  0  0  0  0  0  0  0  0  0  0  0
   13.3007   -6.5032    0.0000 O    0  0  0  0  0  0  0  0  0  0  0  0
   14.8514   -7.5749    0.0000 O    0  0  0  0  0  0  0  0  0  0  0  0
   15.3038   -6.3242    0.0000 C    0  0  0  0  0  0  0  0  0  0  0  0
   14.4469   -5.3070    0.0000 C    0  0  0  0  0  0  0  0  0  0  0  0
   16.6132   -6.0906    0.0000 C    0  0  0  0  0  0  0  0  0  0  0  0
   14.8994   -4.0563    0.0000 C    0  0  0  0  0  0  0  0  0  0  0  0
   17.0656   -4.8400    0.0000 C    0  0  0  0  0  0  0  0  0  0  0  0
   16.2087   -3.8228    0.0000 C    0  0  0  0  0  0  0  0  0  0  0  0
   12.0471   -6.0587    0.0000 C    0  0  0  0  0  0  0  0  0  0  0  0
   11.0354   -6.9221    0.0000 C    0  0  0  0  0  0  0  0  0  0  0  0
   11.8052   -4.7509    0.0000 C    0  0  0  0  0  0  0  0  0  0  0  0
    9.7818   -6.4776    0.0000 C    0  0  0  0  0  0  0  0  0  0  0  0
   10.5517   -4.3064    0.0000 C    0  0  0  0  0  0  0  0  0  0  0  0
    9.5400   -5.1698    0.0000 C    0  0  0  0  0  0  0  0  0  0  0  0
  1  2  1  0  0  0  0
  1  3  2  0  0  0  0
  2  4  2  0  0  0  0
  3  5  1  0  0  0  0
  4  6  1  0  0  0  0
  5  6  2  0  0  0  0
  7  8  1  0  0  0  0
  8  9  2  0  0  0  0
  9 10  1  0  0  0  0
  9 11  1  0  0  0  0
 11 12  1  0  0  0  0
 11 13  2  0  0  0  0
 13 14  1  0  0  0  0
 15 16  1  0  0  0  0
 16 17  2  0  0  0  0
 17 18  1  0  0  0  0
 17 19  1  0  0  0  0
 19 20  1  0  0  0  0
 19 21  2  0  0  0  0
 21 22  1  0  0  0  0
 22 23  1  0  0  0  0
 14 23  1  0  0  0  0
 23 24  1  0  0  0  0
 24 25  2  0  0  0  0
 23 26  1  0  0  0  0
 26 27  1  0  0  0  0
 26 28  1  0  0  0  0
 26 29  1  0  0  0  0
 30 31  1  0  0  0  0
 30 32  2  0  0  0  0
 31 33  2  0  0  0  0
 32 34  1  0  0  0  0
 33 35  1  0  0  0  0
 34 35  2  0  0  0  0
 29 30  1  0  0  0  0
 36 37  1  0  0  0  0
 36 38  2  0  0  0  0
 37 39  2  0  0  0  0
 38 40  1  0  0  0  0
 39 41  1  0  0  0  0
 40 41  2  0  0  0  0
 28 36  1  0  0  0  0
  2 27  1  0  0  0  0
M  END
> <NMREDATA_VERSION>
1.1

> <NMREDATA_LEVEL>
0

> <NMREDATA_SOLVENT>
DCCl3

> <NMREDATA_TEMPERATURE>
298

> <NMREDATA_FORMULA>
C28H33N4O7PRh

> <NMREDATA_SMILES>
C=C[Rh](P(Oc1ccccc1)(Oc1ccccc1)Oc1ccccc1)(O/N=C(/C(=N/O)/C)\C)O/N=C(/C(=N/O)/C)\C

> <NMREDATA_ASSIGNMENT>
Rh23, 2034.00, 23

> <NMREDATA_1D_103Rh>
2034.00, L=Rh23

$$$$

  ACD/LABS03262412102D

 44 47  0  0  0  0  0  0  0  0  1 V2000
   15.7566   -3.8084    0.0000 C    0  0  0  0  0  0  0  0  0  0  0  0
   15.7566   -5.1384    0.0000 C    0  0  0  0  0  0  0  0  0  0  0  0
   14.6048   -3.1434    0.0000 C    0  0  0  0  0  0  0  0  0  0  0  0
   14.6048   -5.8034    0.0000 C    0  0  0  0  0  0  0  0  0  0  0  0
   13.4530   -3.8084    0.0000 C    0  0  0  0  0  0  0  0  0  0  0  0
   13.4530   -5.1384    0.0000 C    0  0  0  0  0  0  0  0  0  0  0  0
    9.9975  -12.4534    0.0000 O    0  0  0  0  0  0  0  0  0  0  0  0
   11.1493  -11.7884    0.0000 N    0  0  0  0  0  0  0  0  0  0  0  0
   12.3012  -12.4534    0.0000 C    0  0  0  0  0  0  0  0  0  0  0  0
   12.3012  -13.7834    0.0000 C    0  0  0  0  0  0  0  0  0  0  0  0
   13.4530  -11.7884    0.0000 C    0  0  0  0  0  0  0  0  0  0  0  0
   14.6048  -12.4534    0.0000 C    0  0  0  0  0  0  0  0  0  0  0  0
   13.4530  -10.4584    0.0000 N    0  0  0  0  0  0  0  0  0  0  0  0
   14.6048   -9.7934    0.0000 O    0  0  0  0  0  0  0  0  0  0  0  0
    8.6198  -11.9189    0.0000 O    0  0  0  0  0  0  0  0  0  0  0  0
    9.2848  -10.7670    0.0000 N    0  0  0  0  0  0  0  0  0  0  0  0
   10.6148  -10.7670    0.0000 C    0  0  0  0  0  0  0  0  0  0  0  0
   11.2798  -11.9189    0.0000 C    0  0  0  0  0  0  0  0  0  0  0  0
   11.2798   -9.6152    0.0000 C    0  0  0  0  0  0  0  0  0  0  0  0
   10.6148   -8.4634    0.0000 C    0  0  0  0  0  0  0  0  0  0  0  0
   12.6098   -9.6152    0.0000 N    0  0  0  0  0  0  0  0  0  0  0  0
   13.2748   -8.4634    0.0000 O    0  0  0  0  0  0  0  0  0  0  0  0
   14.6048   -8.4634    0.0000 Rh   0  0  0  0  0  0  0  0  0  0  0  0
   15.9348   -8.4634    0.0000 C    0  0  0  0  0  0  0  0  0  0  0  0
   16.5998   -9.6152    0.0000 C    0  0  0  0  0  0  0  0  0  0  0  0
   14.6048   -7.1334    0.0000 P    0  0  0  0  0  0  0  0  0  0  0  0
   15.9348   -7.1334    0.0000 C    0  0  0  0  0  0  0  0  0  0  0  0
   16.5998   -5.9816    0.0000 C    0  0  0  0  0  0  0  0  0  0  0  0
   16.5998   -8.2852    0.0000 C    0  0  0  0  0  0  0  0  0  0  0  0
   17.9298   -5.9816    0.0000 C    0  0  0  0  0  0  0  0  0  0  0  0
   17.9298   -8.2852    0.0000 C    0  0  0  0  0  0  0  0  0  0  0  0
   18.5948   -7.1334    0.0000 C    0  0  0  0  0  0  0  0  0  0  0  0
   13.2748   -7.1334    0.0000 C    0  0  0  0  0  0  0  0  0  0  0  0
   12.6098   -8.2852    0.0000 C    0  0  0  0  0  0  0  0  0  0  0  0
   12.6098   -5.9816    0.0000 C    0  0  0  0  0  0  0  0  0  0  0  0
   11.2798   -8.2852    0.0000 C    0  0  0  0  0  0  0  0  0  0  0  0
   11.2798   -5.9816    0.0000 C    0  0  0  0  0  0  0  0  0  0  0  0
   10.6148   -7.1334    0.0000 C    0  0  0  0  0  0  0  0  0  0  0  0
   17.9298   -9.6152    0.0000 C    0  0  0  0  0  0  0  0  0  0  0  0
   18.5948   -8.4634    0.0000 C    0  0  0  0  0  0  0  0  0  0  0  0
   18.5948  -10.7670    0.0000 C    0  0  0  0  0  0  0  0  0  0  0  0
   19.9248   -8.4634    0.0000 C    0  0  0  0  0  0  0  0  0  0  0  0
   19.9248  -10.7670    0.0000 C    0  0  0  0  0  0  0  0  0  0  0  0
   20.5898   -9.6152    0.0000 C    0  0  0  0  0  0  0  0  0  0  0  0
  1  2  1  0  0  0  0
  1  3  2  0  0  0  0
  2  4  2  0  0  0  0
  3  5  1  0  0  0  0
  4  6  1  0  0  0  0
  5  6  2  0  0  0  0
  7  8  1  0  0  0  0
  8  9  2  0  0  0  0
  9 10  1  0  0  0  0
  9 11  1  0  0  0  0
 11 12  1  0  0  0  0
 11 13  2  0  0  0  0
 13 14  1  0  0  0  0
 15 16  1  0  0  0  0
 16 17  2  0  0  0  0
 17 18  1  0  0  0  0
 17 19  1  0  0  0  0
 19 20  1  0  0  0  0
 19 21  2  0  0  0  0
 21 22  1  0  0  0  0
 22 23  1  0  0  0  0
 14 23  1  0  0  0  0
 23 24  1  0  0  0  0
 24 25  2  0  0  0  0
 23 26  1  0  0  0  0
 27 28  1  0  0  0  0
 27 29  2  0  0  0  0
 28 30  2  0  0  0  0
 29 31  1  0  0  0  0
 30 32  1  0  0  0  0
 31 32  2  0  0  0  0
 26 27  1  0  0  0  0
 33 34  1  0  0  0  0
 33 35  2  0  0  0  0
 34 36  2  0  0  0  0
 35 37  1  0  0  0  0
 36 38  1  0  0  0  0
 37 38  2  0  0  0  0
 26 33  1  0  0  0  0
  4 26  1  0  0  0  0
 39 40  1  0  0  0  0
 39 41  2  0  0  0  0
 40 42  2  0  0  0  0
 41 43  1  0  0  0  0
 42 44  1  0  0  0  0
 43 44  2  0  0  0  0
 25 39  1  0  0  0  0
M  END
> <NMREDATA_VERSION>
1.1

> <NMREDATA_LEVEL>
0

> <NMREDATA_SOLVENT>
DCCl3

> <NMREDATA_TEMPERATURE>
298

> <NMREDATA_FORMULA>
C34H37N4O4PRh

> <NMREDATA_SMILES>
O/N=C(/C(=N/O[Rh](P(c1ccccc1)(c1ccccc1)c1ccccc1)(/C=C/c1ccccc1)O/N=C(/C(=N/O)/C)\C)/C)\C

> <NMREDATA_ASSIGNMENT>
Rh23, 2230.00, 23

> <NMREDATA_1D_103Rh>
2230.00, L=Rh23

$$$$

  ACD/LABS03262412102D

 41 43  0  0  0  0  0  0  0  0  1 V2000
   15.7566   -3.8084    0.0000 C    0  0  0  0  0  0  0  0  0  0  0  0
   15.7566   -5.1384    0.0000 C    0  0  0  0  0  0  0  0  0  0  0  0
   14.6048   -3.1434    0.0000 C    0  0  0  0  0  0  0  0  0  0  0  0
   14.6048   -5.8034    0.0000 C    0  0  0  0  0  0  0  0  0  0  0  0
   13.4530   -3.8084    0.0000 C    0  0  0  0  0  0  0  0  0  0  0  0
   13.4530   -5.1384    0.0000 C    0  0  0  0  0  0  0  0  0  0  0  0
    9.9975  -12.4534    0.0000 O    0  0  0  0  0  0  0  0  0  0  0  0
   11.1493  -11.7884    0.0000 N    0  0  0  0  0  0  0  0  0  0  0  0
   12.3012  -12.4534    0.0000 C    0  0  0  0  0  0  0  0  0  0  0  0
   12.3012  -13.7834    0.0000 C    0  0  0  0  0  0  0  0  0  0  0  0
   13.4530  -11.7884    0.0000 C    0  0  0  0  0  0  0  0  0  0  0  0
   14.6048  -12.4534    0.0000 C    0  0  0  0  0  0  0  0  0  0  0  0
   13.4530  -10.4584    0.0000 N    0  0  0  0  0  0  0  0  0  0  0  0
   14.6048   -9.7934    0.0000 O    0  0  0  0  0  0  0  0  0  0  0  0
    8.6198  -11.9189    0.0000 O    0  0  0  0  0  0  0  0  0  0  0  0
    9.2848  -10.7670    0.0000 N    0  0  0  0  0  0  0  0  0  0  0  0
   10.6148  -10.7670    0.0000 C    0  0  0  0  0  0  0  0  0  0  0  0
   11.2798  -11.9189    0.0000 C    0  0  0  0  0  0  0  0  0  0  0  0
   11.2798   -9.6152    0.0000 C    0  0  0  0  0  0  0  0  0  0  0  0
   10.6148   -8.4634    0.0000 C    0  0  0  0  0  0  0  0  0  0  0  0
   12.6098   -9.6152    0.0000 N    0  0  0  0  0  0  0  0  0  0  0  0
   13.2748   -8.4634    0.0000 O    0  0  0  0  0  0  0  0  0  0  0  0
   14.6048   -8.4634    0.0000 Rh   0  0  0  0  0  0  0  0  0  0  0  0
   15.9348   -8.4634    0.0000 C    0  0  0  0  0  0  0  0  0  0  0  0
   16.5998   -9.6152    0.0000 C    0  0  0  0  0  0  0  0  0  0  0  0
   14.6048   -7.1334    0.0000 P    0  0  0  0  0  0  0  0  0  0  0  0
   15.9348   -7.1334    0.0000 C    0  0  0  0  0  0  0  0  0  0  0  0
   16.5998   -5.9816    0.0000 C    0  0  0  0  0  0  0  0  0  0  0  0
   16.5998   -8.2852    0.0000 C    0  0  0  0  0  0  0  0  0  0  0  0
   17.9298   -5.9816    0.0000 C    0  0  0  0  0  0  0  0  0  0  0  0
   17.9298   -8.2852    0.0000 C    0  0  0  0  0  0  0  0  0  0  0  0
   18.5948   -7.1334    0.0000 C    0  0  0  0  0  0  0  0  0  0  0  0
   13.2748   -7.1334    0.0000 C    0  0  0  0  0  0  0  0  0  0  0  0
   12.6098   -8.2852    0.0000 C    0  0  0  0  0  0  0  0  0  0  0  0
   12.6098   -5.9816    0.0000 C    0  0  0  0  0  0  0  0  0  0  0  0
   11.2798   -8.2852    0.0000 C    0  0  0  0  0  0  0  0  0  0  0  0
   11.2798   -5.9816    0.0000 C    0  0  0  0  0  0  0  0  0  0  0  0
   10.6148   -7.1334    0.0000 C    0  0  0  0  0  0  0  0  0  0  0  0
   17.9298   -9.6152    0.0000 C    0  0  0  0  0  0  0  0  0  0  0  0
   18.5948  -10.7671    0.0000 C    0  0  0  0  0  0  0  0  0  0  0  0
   17.9298  -11.9189    0.0000 C    0  0  0  0  0  0  0  0  0  0  0  0
  1  2  1  0  0  0  0
  1  3  2  0  0  0  0
  2  4  2  0  0  0  0
  3  5  1  0  0  0  0
  4  6  1  0  0  0  0
  5  6  2  0  0  0  0
  7  8  1  0  0  0  0
  8  9  2  0  0  0  0
  9 10  1  0  0  0  0
  9 11  1  0  0  0  0
 11 12  1  0  0  0  0
 11 13  2  0  0  0  0
 13 14  1  0  0  0  0
 15 16  1  0  0  0  0
 16 17  2  0  0  0  0
 17 18  1  0  0  0  0
 17 19  1  0  0  0  0
 19 20  1  0  0  0  0
 19 21  2  0  0  0  0
 21 22  1  0  0  0  0
 22 23  1  0  0  0  0
 14 23  1  0  0  0  0
 23 24  1  0  0  0  0
 24 25  2  0  0  0  0
 23 26  1  0  0  0  0
 27 28  1  0  0  0  0
 27 29  2  0  0  0  0
 28 30  2  0  0  0  0
 29 31  1  0  0  0  0
 30 32  1  0  0  0  0
 31 32  2  0  0  0  0
 26 27  1  0  0  0  0
 33 34  1  0  0  0  0
 33 35  2  0  0  0  0
 34 36  2  0  0  0  0
 35 37  1  0  0  0  0
 36 38  1  0  0  0  0
 37 38  2  0  0  0  0
 26 33  1  0  0  0  0
  4 26  1  0  0  0  0
 25 39  1  0  0  0  0
 39 40  1  0  0  0  0
 40 41  1  0  0  0  0
M  END
> <NMREDATA_VERSION>
1.1

> <NMREDATA_LEVEL>
0

> <NMREDATA_SOLVENT>
DCCl3

> <NMREDATA_TEMPERATURE>
298

> <NMREDATA_FORMULA>
C31H39N4O4PRh

> <NMREDATA_SMILES>
CCC/C=C/[Rh](P(c1ccccc1)(c1ccccc1)c1ccccc1)(O/N=C(/C(=N/O)/C)\C)O/N=C(/C(=N/O)/C)\C

> <NMREDATA_ASSIGNMENT>
Rh23, 2233.00, 23

> <NMREDATA_1D_103Rh>
2233.00, L=Rh23

$$$$

  ACD/LABS03262412112D

 41 43  0  0  0  0  0  0  0  0  1 V2000
   16.2179   -3.8084    0.0000 C    0  0  0  0  0  0  0  0  0  0  0  0
   16.2179   -5.1384    0.0000 C    0  0  0  0  0  0  0  0  0  0  0  0
   15.0661   -3.1434    0.0000 C    0  0  0  0  0  0  0  0  0  0  0  0
   15.0661   -5.8034    0.0000 C    0  0  0  0  0  0  0  0  0  0  0  0
   13.9143   -3.8084    0.0000 C    0  0  0  0  0  0  0  0  0  0  0  0
   13.9143   -5.1384    0.0000 C    0  0  0  0  0  0  0  0  0  0  0  0
   10.4588  -12.4534    0.0000 O    0  0  0  0  0  0  0  0  0  0  0  0
   11.6106  -11.7884    0.0000 N    0  0  0  0  0  0  0  0  0  0  0  0
   12.7624  -12.4534    0.0000 C    0  0  0  0  0  0  0  0  0  0  0  0
   12.7624  -13.7834    0.0000 C    0  0  0  0  0  0  0  0  0  0  0  0
   13.9143  -11.7884    0.0000 C    0  0  0  0  0  0  0  0  0  0  0  0
   15.0661  -12.4534    0.0000 C    0  0  0  0  0  0  0  0  0  0  0  0
   13.9143  -10.4584    0.0000 N    0  0  0  0  0  0  0  0  0  0  0  0
   15.0661   -9.7934    0.0000 O    0  0  0  0  0  0  0  0  0  0  0  0
    9.0811  -11.9189    0.0000 O    0  0  0  0  0  0  0  0  0  0  0  0
    9.7461  -10.7670    0.0000 N    0  0  0  0  0  0  0  0  0  0  0  0
   11.0761  -10.7670    0.0000 C    0  0  0  0  0  0  0  0  0  0  0  0
   11.7411  -11.9189    0.0000 C    0  0  0  0  0  0  0  0  0  0  0  0
   11.7411   -9.6152    0.0000 C    0  0  0  0  0  0  0  0  0  0  0  0
   11.0761   -8.4634    0.0000 C    0  0  0  0  0  0  0  0  0  0  0  0
   13.0711   -9.6152    0.0000 N    0  0  0  0  0  0  0  0  0  0  0  0
   13.7361   -8.4634    0.0000 O    0  0  0  0  0  0  0  0  0  0  0  0
   15.0661   -8.4634    0.0000 Rh   0  0  0  0  0  0  0  0  0  0  0  0
   16.3961   -8.4634    0.0000 C    0  0  0  0  0  0  0  0  0  0  0  0
   15.0661   -7.1334    0.0000 P    0  0  0  0  0  0  0  0  0  0  0  0
   16.3961   -7.1334    0.0000 C    0  0  0  0  0  0  0  0  0  0  0  0
   17.0611   -5.9816    0.0000 C    0  0  0  0  0  0  0  0  0  0  0  0
   17.0611   -8.2852    0.0000 C    0  0  0  0  0  0  0  0  0  0  0  0
   18.3911   -5.9816    0.0000 C    0  0  0  0  0  0  0  0  0  0  0  0
   18.3911   -8.2852    0.0000 C    0  0  0  0  0  0  0  0  0  0  0  0
   19.0561   -7.1334    0.0000 C    0  0  0  0  0  0  0  0  0  0  0  0
   13.7361   -7.1334    0.0000 C    0  0  0  0  0  0  0  0  0  0  0  0
   13.0711   -8.2852    0.0000 C    0  0  0  0  0  0  0  0  0  0  0  0
   13.0711   -5.9816    0.0000 C    0  0  0  0  0  0  0  0  0  0  0  0
   11.7411   -8.2852    0.0000 C    0  0  0  0  0  0  0  0  0  0  0  0
   11.7411   -5.9816    0.0000 C    0  0  0  0  0  0  0  0  0  0  0  0
   11.0761   -7.1334    0.0000 C    0  0  0  0  0  0  0  0  0  0  0  0
   17.0611   -9.6152    0.0000 C    0  0  0  0  0  0  0  0  0  0  0  0
   18.3911   -9.6152    0.0000 C    0  0  0  0  0  0  0  0  0  0  0  0
   19.0561  -10.7670    0.0000 C    0  0  0  0  0  0  0  0  0  0  0  0
   20.3861  -10.7670    0.0000 C    0  0  0  0  0  0  0  0  0  0  0  0
  1  2  1  0  0  0  0
  1  3  2  0  0  0  0
  2  4  2  0  0  0  0
  3  5  1  0  0  0  0
  4  6  1  0  0  0  0
  5  6  2  0  0  0  0
  7  8  1  0  0  0  0
  8  9  2  0  0  0  0
  9 10  1  0  0  0  0
  9 11  1  0  0  0  0
 11 12  1  0  0  0  0
 11 13  2  0  0  0  0
 13 14  1  0  0  0  0
 15 16  1  0  0  0  0
 16 17  2  0  0  0  0
 17 18  1  0  0  0  0
 17 19  1  0  0  0  0
 19 20  1  0  0  0  0
 19 21  2  0  0  0  0
 21 22  1  0  0  0  0
 22 23  1  0  0  0  0
 14 23  1  0  0  0  0
 23 24  1  0  0  0  0
 23 25  1  0  0  0  0
 26 27  1  0  0  0  0
 26 28  2  0  0  0  0
 27 29  2  0  0  0  0
 28 30  1  0  0  0  0
 29 31  1  0  0  0  0
 30 31  2  0  0  0  0
 25 26  1  0  0  0  0
 32 33  1  0  0  0  0
 32 34  2  0  0  0  0
 33 35  2  0  0  0  0
 34 36  1  0  0  0  0
 35 37  1  0  0  0  0
 36 37  2  0  0  0  0
 25 32  1  0  0  0  0
  4 25  1  0  0  0  0
 24 38  1  0  0  0  0
 38 39  1  0  0  0  0
 39 40  1  0  0  0  0
 40 41  2  0  0  0  0
M  END
> <NMREDATA_VERSION>
1.1

> <NMREDATA_LEVEL>
0

> <NMREDATA_SOLVENT>
DCCl3

> <NMREDATA_TEMPERATURE>
298

> <NMREDATA_FORMULA>
C31H39N4O4PRh

> <NMREDATA_SMILES>
C=CCCC[Rh](P(c1ccccc1)(c1ccccc1)c1ccccc1)(O/N=C(/C(=N/O)/C)\C)O/N=C(/C(=N/O)/C)\C

> <NMREDATA_ASSIGNMENT>
Rh23, 2290.00, 23

> <NMREDATA_1D_103Rh>
2290.00, L=Rh23

$$$$

  ACD/LABS03262412152D

 25 24  0  0  0  0  0  0  0  0  1 V2000
   19.4430   -4.7022    0.0000 O    0  0  0  0  0  0  0  0  0  0  0  0
   19.4425   -6.0327    0.0000 N    0  0  0  0  0  0  0  0  0  0  0  0
   18.2907   -6.6980    0.0000 C    0  0  0  0  0  0  0  0  0  0  0  0
   17.1395   -6.0334    0.0000 C    0  0  0  0  0  0  0  0  0  0  0  0
   18.2904   -8.0282    0.0000 C    0  0  0  0  0  0  0  0  0  0  0  0
   19.4416   -8.6929    0.0000 C    0  0  0  0  0  0  0  0  0  0  0  0
   17.1386   -8.6936    0.0000 N    0  0  0  0  0  0  0  0  0  0  0  0
   17.1383  -10.0238    0.0000 O    0  0  0  0  0  0  0  0  0  0  0  0
   10.0241   -7.2262    0.0000 O    0  0  0  0  0  0  0  0  0  0  0  0
   11.3498   -7.2344    0.0000 N    0  0  0  0  0  0  0  0  0  0  0  0
   12.0200   -8.3785    0.0000 C    0  0  0  0  0  0  0  0  0  0  0  0
   11.3553   -9.5298    0.0000 C    0  0  0  0  0  0  0  0  0  0  0  0
   13.3457   -8.3867    0.0000 C    0  0  0  0  0  0  0  0  0  0  0  0
   14.0103   -7.2355    0.0000 C    0  0  0  0  0  0  0  0  0  0  0  0
   14.0077   -9.5261    0.0000 N    0  0  0  0  0  0  0  0  0  0  0  0
   15.3254   -9.5297    0.0000 O    0  0  0  0  0  0  0  0  0  0  0  0
   15.9953  -10.6737    0.0000 Rh   0  0  0  0  0  0  0  0  0  0  0  0
   14.8438  -11.3392    0.0000 C    0  0  0  0  0  0  0  0  0  0  0  0
   14.8432  -12.6692    0.0000 C    0  0  0  0  0  0  0  0  0  0  0  0
   13.6917  -13.3348    0.0000 C    0  0  0  0  0  0  0  0  0  0  0  0
   13.6911  -14.6648    0.0000 C    0  0  0  0  0  0  0  0  0  0  0  0
   12.5394  -15.3307    0.0000 C    0  0  0  0  0  0  0  0  0  0  0  0
   16.6612  -11.8254    0.0000 S    0  0  0  0  0  0  0  0  0  0  0  0
   17.9912  -11.8260    0.0000 C    0  0  0  0  0  0  0  0  0  0  0  0
   15.9964  -12.9770    0.0000 C    0  0  0  0  0  0  0  0  0  0  0  0
  1  2  1  0  0  0  0
  2  3  2  0  0  0  0
  3  4  1  0  0  0  0
  3  5  1  0  0  0  0
  5  6  1  0  0  0  0
  5  7  2  0  0  0  0
  7  8  1  0  0  0  0
  9 10  1  0  0  0  0
 10 11  2  0  0  0  0
 11 12  1  0  0  0  0
 11 13  1  0  0  0  0
 13 14  1  0  0  0  0
 13 15  2  0  0  0  0
 15 16  1  0  0  0  0
 16 17  1  0  0  0  0
  8 17  1  0  0  0  0
 17 18  1  0  0  0  0
 18 19  1  0  0  0  0
 19 20  1  0  0  0  0
 20 21  1  0  0  0  0
 21 22  2  0  0  0  0
 17 23  1  0  0  0  0
 23 24  1  0  0  0  0
 23 25  1  0  0  0  0
M  END
> <NMREDATA_VERSION>
1.1

> <NMREDATA_LEVEL>
0

> <NMREDATA_SOLVENT>
DCCl3

> <NMREDATA_TEMPERATURE>
298

> <NMREDATA_FORMULA>
C15H30N4O4RhS

> <NMREDATA_SMILES>
C=CCCC[Rh](S(C)C)(O/N=C(/C(=N/O)/C)\C)O/N=C(/C(=N/O)/C)\C

> <NMREDATA_ASSIGNMENT>
Rh17, 2397.00, 17

> <NMREDATA_1D_103Rh>
2397.00, L=Rh17

$$$$

  ACD/LABS03282419082D

 16 12  0  0  0  0  0  0  0  0  2 V2000
   14.9345   -9.1337    0.0000 Rh   0  7  0  0  0  0  0  0  0  0  0  0
   16.2645   -9.1337    0.0000 C    0  0  0  0  0  0  0  0  0  0  0  0
   17.5945   -9.1337    0.0000 N    0  0  0  0  0  0  0  0  0  0  0  0
   14.2695   -7.9819    0.0000 C    0  0  0  0  0  0  0  0  0  0  0  0
   13.6045   -6.8301    0.0000 N    0  0  0  0  0  0  0  0  0  0  0  0
   14.2695  -10.2855    0.0000 C    0  0  0  0  0  0  0  0  0  0  0  0
   13.6045  -11.4374    0.0000 N    0  0  0  0  0  0  0  0  0  0  0  0
   13.6045   -9.1337    0.0000 C    0  0  0  0  0  0  0  0  0  0  0  0
   12.2745   -9.1337    0.0000 N    0  0  0  0  0  0  0  0  0  0  0  0
   15.5995   -7.9819    0.0000 C    0  0  0  0  0  0  0  0  0  0  0  0
   16.2645   -6.8301    0.0000 N    0  0  0  0  0  0  0  0  0  0  0  0
   15.5995  -10.2856    0.0000 C    0  0  0  0  0  0  0  0  0  0  0  0
   16.2645  -11.4374    0.0000 N    0  0  0  0  0  0  0  0  0  0  0  0
   18.6360   -5.6405    0.0000 K    0  3  0  0  0  0  0  0  0  0  0  0
   19.6295   -5.6405    0.0000 K    0  3  0  0  0  0  0  0  0  0  0  0
   20.6390   -5.5764    0.0000 K    0  3  0  0  0  0  0  0  0  0  0  0
  2  3  3  0  0  0  0
  1  2  1  0  0  0  0
  4  5  3  0  0  0  0
  1  4  1  0  0  0  0
  6  7  3  0  0  0  0
  1  6  1  0  0  0  0
  8  9  3  0  0  0  0
  1  8  1  0  0  0  0
 10 11  3  0  0  0  0
  1 10  1  0  0  0  0
 12 13  3  0  0  0  0
  1 12  1  0  0  0  0
M  END
> <NMREDATA_VERSION>
1.1

> <NMREDATA_LEVEL>
0

> <NMREDATA_SOLVENT>
HClO4 (aq)

> <NMREDATA_TEMPERATURE>
298

> <NMREDATA_FORMULA>
C6H3K3N6Rh

> <NMREDATA_SMILES>
N#C[Rh](C#N)(C#N)(C#N)(C#N)C#N.[KH].[KH].[KH]

> <NMREDATA_ASSIGNMENT>
Rh1, 340.00, 1

> <NMREDATA_1D_103Rh>
340.00, L=Rh1

$$$$

  ACD/LABS03282419102D

 62 70  0  0  0  0  0  0  0  0  1 V2000
   13.8225  -14.4509    0.0000 C    0  0  0  0  0  0  0  0  0  0  0  0
   12.9581  -15.4724    0.0000 C    0  0  0  0  0  0  0  0  0  0  0  0
   15.1287  -14.6906    0.0000 C    0  0  0  0  0  0  0  0  0  0  0  0
   13.4102  -16.7170    0.0000 C    0  0  0  0  0  0  0  0  0  0  0  0
   15.5808  -15.9352    0.0000 C    0  0  0  0  0  0  0  0  0  0  0  0
   14.7239  -16.9524    0.0000 C    0  0  0  0  0  0  0  0  0  0  0  0
   16.9987  -12.8221    0.0000 C    0  0  0  0  0  0  0  0  0  0  0  0
   16.7730  -11.5082    0.0000 C    0  0  0  0  0  0  0  0  0  0  0  0
   18.2461  -13.2796    0.0000 C    0  0  0  0  0  0  0  0  0  0  0  0
   17.7871  -10.6568    0.0000 C    0  0  0  0  0  0  0  0  0  0  0  0
   19.2681  -12.4237    0.0000 C    0  0  0  0  0  0  0  0  0  0  0  0
   19.0420  -11.1100    0.0000 C    0  0  0  0  0  0  0  0  0  0  0  0
   17.0027  -14.5304    0.0000 C    0  0  0  0  0  0  0  0  0  0  0  0
   18.2463  -14.0783    0.0000 C    0  0  0  0  0  0  0  0  0  0  0  0
   16.7628  -15.8361    0.0000 C    0  0  0  0  0  0  0  0  0  0  0  0
   19.2680  -14.9431    0.0000 C    0  0  0  0  0  0  0  0  0  0  0  0
   17.7845  -16.7010    0.0000 C    0  0  0  0  0  0  0  0  0  0  0  0
   19.0287  -16.2490    0.0000 C    0  0  0  0  0  0  0  0  0  0  0  0
   13.7233   -9.1524    0.0000 C    0  0  0  0  0  0  0  0  0  0  0  0
   12.4221   -8.9204    0.0000 C    0  0  0  0  0  0  0  0  0  0  0  0
   14.5844   -8.1434    0.0000 C    0  0  0  0  0  0  0  0  0  0  0  0
   11.9653   -7.6685    0.0000 C    0  0  0  0  0  0  0  0  0  0  0  0
   14.1277   -6.8909    0.0000 C    0  0  0  0  0  0  0  0  0  0  0  0
   12.8218   -6.6516    0.0000 C    0  0  0  0  0  0  0  0  0  0  0  0
   13.7745  -11.7953    0.0000 Rh   0  0  0  0  0  0  0  0  0  0  0  0
   12.6180  -12.4529    0.0000 C    0  0  0  0  0  0  0  0  0  0  0  0
   11.5917  -13.3014    0.0000 N    0  0  0  0  0  0  0  0  0  0  0  0
   14.9311  -11.1380    0.0000 H    0  0  0  0  0  0  0  0  0  0  0  0
   13.5397  -13.1090    0.0000 H    0  0  0  0  0  0  0  0  0  0  0  0
   15.3037   -7.6152    0.0000 P    0  0  0  0  0  0  0  0  0  0  0  0
   11.5608   -9.9301    0.0000 P    0  0  0  0  0  0  0  0  0  0  0  0
   15.9856  -13.6735    0.0000 P    0  0  0  0  0  0  0  0  0  0  0  0
   19.5060  -10.3707    0.0000 C    0  0  0  0  0  0  0  0  0  0  0  0
   18.2468   -9.9100    0.0000 C    0  0  0  0  0  0  0  0  0  0  0  0
   20.5201   -9.5193    0.0000 C    0  0  0  0  0  0  0  0  0  0  0  0
   18.0254   -8.6037    0.0000 C    0  0  0  0  0  0  0  0  0  0  0  0
   20.2944   -8.2054    0.0000 C    0  0  0  0  0  0  0  0  0  0  0  0
   19.0515   -7.7558    0.0000 C    0  0  0  0  0  0  0  0  0  0  0  0
   10.8210   -5.3488    0.0000 C    0  0  0  0  0  0  0  0  0  0  0  0
   11.8377   -6.2060    0.0000 C    0  0  0  0  0  0  0  0  0  0  0  0
   11.0399   -4.0442    0.0000 C    0  0  0  0  0  0  0  0  0  0  0  0
   13.0817   -5.7537    0.0000 C    0  0  0  0  0  0  0  0  0  0  0  0
   12.2921   -3.5877    0.0000 C    0  0  0  0  0  0  0  0  0  0  0  0
   13.3092   -4.4446    0.0000 C    0  0  0  0  0  0  0  0  0  0  0  0
   17.5280   -4.8867    0.0000 C    0  0  0  0  0  0  0  0  0  0  0  0
   17.0705   -6.1342    0.0000 C    0  0  0  0  0  0  0  0  0  0  0  0
   16.6719   -3.8654    0.0000 C    0  0  0  0  0  0  0  0  0  0  0  0
   15.7612   -6.3677    0.0000 C    0  0  0  0  0  0  0  0  0  0  0  0
   15.3705   -4.0944    0.0000 C    0  0  0  0  0  0  0  0  0  0  0  0
   14.9051   -5.3464    0.0000 C    0  0  0  0  0  0  0  0  0  0  0  0
    8.7022  -12.0924    0.0000 C    0  0  0  0  0  0  0  0  0  0  0  0
    9.3679  -10.9397    0.0000 C    0  0  0  0  0  0  0  0  0  0  0  0
    9.3595  -13.2490    0.0000 C    0  0  0  0  0  0  0  0  0  0  0  0
   10.7037  -10.9468    0.0000 C    0  0  0  0  0  0  0  0  0  0  0  0
   10.6862  -13.2404    0.0000 C    0  0  0  0  0  0  0  0  0  0  0  0
   11.3612  -12.1038    0.0000 C    0  0  0  0  0  0  0  0  0  0  0  0
   10.1898   -7.9458    0.0000 C    0  0  0  0  0  0  0  0  0  0  0  0
   10.4079   -9.2640    0.0000 C    0  0  0  0  0  0  0  0  0  0  0  0
    8.9423   -7.4882    0.0000 C    0  0  0  0  0  0  0  0  0  0  0  0
    9.3895  -10.1079    0.0000 C    0  0  0  0  0  0  0  0  0  0  0  0
    7.9164   -8.3365    0.0000 C    0  0  0  0  0  0  0  0  0  0  0  0
    8.1378   -9.6429    0.0000 C    0  0  0  0  0  0  0  0  0  0  0  0
  1  2  1  0  0  0  0
  1  3  2  0  0  0  0
  2  4  2  0  0  0  0
  3  5  1  0  0  0  0
  4  6  1  0  0  0  0
  5  6  2  0  0  0  0
  7  8  1  0  0  0  0
  7  9  2  0  0  0  0
  8 10  2  0  0  0  0
  9 11  1  0  0  0  0
 10 12  1  0  0  0  0
 11 12  2  0  0  0  0
 13 14  1  0  0  0  0
 13 15  2  0  0  0  0
 14 16  2  0  0  0  0
 15 17  1  0  0  0  0
 16 18  1  0  0  0  0
 17 18  2  0  0  0  0
 19 20  1  0  0  0  0
 19 21  2  0  0  0  0
 20 22  2  0  0  0  0
 21 23  1  0  0  0  0
 22 24  1  0  0  0  0
 23 24  2  0  0  0  0
 26 27  3  0  0  0  0
 25 26  1  0  0  0  0
 25 28  1  0  0  0  0
 25 29  1  0  0  0  0
 25 30  1  0  0  0  0
 25 31  1  0  0  0  0
 25 32  1  0  0  0  0
 33 34  1  0  0  0  0
 33 35  2  0  0  0  0
 34 36  2  0  0  0  0
 35 37  1  0  0  0  0
 36 38  1  0  0  0  0
 37 38  2  0  0  0  0
 30 36  1  0  0  0  0
 39 40  1  0  0  0  0
 39 41  2  0  0  0  0
 40 42  2  0  0  0  0
 41 43  1  0  0  0  0
 42 44  1  0  0  0  0
 43 44  2  0  0  0  0
 30 42  1  0  0  0  0
 45 46  1  0  0  0  0
 45 47  2  0  0  0  0
 46 48  2  0  0  0  0
 47 49  1  0  0  0  0
 48 50  1  0  0  0  0
 49 50  2  0  0  0  0
 30 48  1  0  0  0  0
 51 52  1  0  0  0  0
 51 53  2  0  0  0  0
 52 54  2  0  0  0  0
 53 55  1  0  0  0  0
 54 56  1  0  0  0  0
 55 56  2  0  0  0  0
 31 54  1  0  0  0  0
 57 58  1  0  0  0  0
 57 59  2  0  0  0  0
 58 60  2  0  0  0  0
 59 61  1  0  0  0  0
 60 62  1  0  0  0  0
 61 62  2  0  0  0  0
 31 58  1  0  0  0  0
 20 31  1  0  0  0  0
 13 32  1  0  0  0  0
  7 32  1  0  0  0  0
  3 32  1  0  0  0  0
M  END
> <NMREDATA_VERSION>
1.1

> <NMREDATA_LEVEL>
0

> <NMREDATA_SOLVENT>
DCCl3

> <NMREDATA_TEMPERATURE>
247

> <NMREDATA_FORMULA>
C55H50NP3Rh

> <NMREDATA_SMILES>
N#C[RhH2](P(c1ccccc1)(c1ccccc1)c1ccccc1)(P(c1ccccc1)(c1ccccc1)c1ccccc1)P(c1ccccc1)(c1ccccc1)c1ccccc1

> <NMREDATA_ASSIGNMENT>
Rh25, -581.00, 25

> <NMREDATA_1D_103Rh>
-581.00, L=Rh25

$$$$

  ACD/LABS03282419112D

 49 55  0  0  0  0  0  0  0  0  1 V2000
   13.7233   -9.1524    0.0000 C    0  0  0  0  0  0  0  0  0  0  0  0
   12.4221   -8.9204    0.0000 C    0  0  0  0  0  0  0  0  0  0  0  0
   14.5844   -8.1434    0.0000 C    0  0  0  0  0  0  0  0  0  0  0  0
   11.9653   -7.6685    0.0000 C    0  0  0  0  0  0  0  0  0  0  0  0
   14.1277   -6.8909    0.0000 C    0  0  0  0  0  0  0  0  0  0  0  0
   12.8218   -6.6516    0.0000 C    0  0  0  0  0  0  0  0  0  0  0  0
   13.7745  -11.7953    0.0000 Rh   0  0  0  0  0  0  0  0  0  0  0  0
   12.6180  -12.4529    0.0000 C    0  0  0  0  0  0  0  0  0  0  0  0
   11.5917  -13.3014    0.0000 N    0  0  0  0  0  0  0  0  0  0  0  0
   14.9311  -11.1380    0.0000 H    0  0  0  0  0  0  0  0  0  0  0  0
   13.5397  -13.1090    0.0000 H    0  0  0  0  0  0  0  0  0  0  0  0
   15.3037   -7.6152    0.0000 P    0  0  0  0  0  0  0  0  0  0  0  0
   11.5608   -9.9301    0.0000 P    0  0  0  0  0  0  0  0  0  0  0  0
   19.5060  -10.3707    0.0000 C    0  0  0  0  0  0  0  0  0  0  0  0
   18.2468   -9.9100    0.0000 C    0  0  0  0  0  0  0  0  0  0  0  0
   20.5201   -9.5193    0.0000 C    0  0  0  0  0  0  0  0  0  0  0  0
   18.0254   -8.6037    0.0000 C    0  0  0  0  0  0  0  0  0  0  0  0
   20.2944   -8.2054    0.0000 C    0  0  0  0  0  0  0  0  0  0  0  0
   19.0515   -7.7558    0.0000 C    0  0  0  0  0  0  0  0  0  0  0  0
   10.8210   -5.3488    0.0000 C    0  0  0  0  0  0  0  0  0  0  0  0
   11.8377   -6.2060    0.0000 C    0  0  0  0  0  0  0  0  0  0  0  0
   11.0399   -4.0442    0.0000 C    0  0  0  0  0  0  0  0  0  0  0  0
   13.0817   -5.7537    0.0000 C    0  0  0  0  0  0  0  0  0  0  0  0
   12.2921   -3.5877    0.0000 C    0  0  0  0  0  0  0  0  0  0  0  0
   13.3092   -4.4446    0.0000 C    0  0  0  0  0  0  0  0  0  0  0  0
   17.5280   -4.8867    0.0000 C    0  0  0  0  0  0  0  0  0  0  0  0
   17.0705   -6.1342    0.0000 C    0  0  0  0  0  0  0  0  0  0  0  0
   16.6719   -3.8654    0.0000 C    0  0  0  0  0  0  0  0  0  0  0  0
   15.7612   -6.3677    0.0000 C    0  0  0  0  0  0  0  0  0  0  0  0
   15.3705   -4.0944    0.0000 C    0  0  0  0  0  0  0  0  0  0  0  0
   14.9051   -5.3464    0.0000 C    0  0  0  0  0  0  0  0  0  0  0  0
    8.7022  -12.0924    0.0000 C    0  0  0  0  0  0  0  0  0  0  0  0
    9.3679  -10.9397    0.0000 C    0  0  0  0  0  0  0  0  0  0  0  0
    9.3595  -13.2490    0.0000 C    0  0  0  0  0  0  0  0  0  0  0  0
   10.7037  -10.9468    0.0000 C    0  0  0  0  0  0  0  0  0  0  0  0
   10.6862  -13.2404    0.0000 C    0  0  0  0  0  0  0  0  0  0  0  0
   11.3612  -12.1038    0.0000 C    0  0  0  0  0  0  0  0  0  0  0  0
   10.1898   -7.9458    0.0000 C    0  0  0  0  0  0  0  0  0  0  0  0
   10.4079   -9.2640    0.0000 C    0  0  0  0  0  0  0  0  0  0  0  0
    8.9423   -7.4882    0.0000 C    0  0  0  0  0  0  0  0  0  0  0  0
    9.3895  -10.1079    0.0000 C    0  0  0  0  0  0  0  0  0  0  0  0
    7.9164   -8.3365    0.0000 C    0  0  0  0  0  0  0  0  0  0  0  0
    8.1378   -9.6429    0.0000 C    0  0  0  0  0  0  0  0  0  0  0  0
   14.8604  -12.5631    0.0000 N    0  0  0  0  0  0  0  0  0  0  0  0
   16.0684  -12.0065    0.0000 C    0  0  0  0  0  0  0  0  0  0  0  0
   14.7385  -13.8876    0.0000 C    0  0  0  0  0  0  0  0  0  0  0  0
   17.1544  -12.7745    0.0000 C    0  0  0  0  0  0  0  0  0  0  0  0
   15.8245  -14.6554    0.0000 C    0  0  0  0  0  0  0  0  0  0  0  0
   17.0324  -14.0988    0.0000 C    0  0  0  0  0  0  0  0  0  0  0  0
  1  2  1  0  0  0  0
  1  3  2  0  0  0  0
  2  4  2  0  0  0  0
  3  5  1  0  0  0  0
  4  6  1  0  0  0  0
  5  6  2  0  0  0  0
  8  9  3  0  0  0  0
  7  8  1  0  0  0  0
  7 10  1  0  0  0  0
  7 11  1  0  0  0  0
  7 12  1  0  0  0  0
  7 13  1  0  0  0  0
 14 15  1  0  0  0  0
 14 16  2  0  0  0  0
 15 17  2  0  0  0  0
 16 18  1  0  0  0  0
 17 19  1  0  0  0  0
 18 19  2  0  0  0  0
 12 17  1  0  0  0  0
 20 21  1  0  0  0  0
 20 22  2  0  0  0  0
 21 23  2  0  0  0  0
 22 24  1  0  0  0  0
 23 25  1  0  0  0  0
 24 25  2  0  0  0  0
 12 23  1  0  0  0  0
 26 27  1  0  0  0  0
 26 28  2  0  0  0  0
 27 29  2  0  0  0  0
 28 30  1  0  0  0  0
 29 31  1  0  0  0  0
 30 31  2  0  0  0  0
 12 29  1  0  0  0  0
 32 33  1  0  0  0  0
 32 34  2  0  0  0  0
 33 35  2  0  0  0  0
 34 36  1  0  0  0  0
 35 37  1  0  0  0  0
 36 37  2  0  0  0  0
 13 35  1  0  0  0  0
 38 39  1  0  0  0  0
 38 40  2  0  0  0  0
 39 41  2  0  0  0  0
 40 42  1  0  0  0  0
 41 43  1  0  0  0  0
 42 43  2  0  0  0  0
 13 39  1  0  0  0  0
  2 13  1  0  0  0  0
 44 45  1  0  0  0  0
 44 46  2  0  0  0  0
 45 47  2  0  0  0  0
 46 48  1  0  0  0  0
 47 49  1  0  0  0  0
 48 49  2  0  0  0  0
  7 44  1  0  0  0  0
M  END
> <NMREDATA_VERSION>
1.1

> <NMREDATA_LEVEL>
0

> <NMREDATA_SOLVENT>
toluene-d8

> <NMREDATA_TEMPERATURE>
300

> <NMREDATA_FORMULA>
C42H40N2P2Rh

> <NMREDATA_SMILES>
N#C[RhH2](P(c1ccccc1)(c1ccccc1)c1ccccc1)(P(c1ccccc1)(c1ccccc1)c1ccccc1)N1=CC=CC=C1

> <NMREDATA_ASSIGNMENT>
Rh7, 56.00, 7

> <NMREDATA_1D_103Rh>
56.00, L=Rh7

$$$$

  ACD/LABS03282419122D

 62 70  0  0  0  0  0  0  0  0  1 V2000
   15.7494  -12.7571    0.0000 C    0  0  0  0  0  0  0  0  0  0  0  0
   14.8929  -13.7792    0.0000 C    0  0  0  0  0  0  0  0  0  0  0  0
   17.0516  -12.9864    0.0000 C    0  0  0  0  0  0  0  0  0  0  0  0
   15.3508  -15.0272    0.0000 C    0  0  0  0  0  0  0  0  0  0  0  0
   17.5172  -14.2390    0.0000 C    0  0  0  0  0  0  0  0  0  0  0  0
   16.6609  -15.2606    0.0000 C    0  0  0  0  0  0  0  0  0  0  0  0
   18.9209  -11.1151    0.0000 C    0  0  0  0  0  0  0  0  0  0  0  0
   18.6856   -9.8008    0.0000 C    0  0  0  0  0  0  0  0  0  0  0  0
   20.1782  -11.5642    0.0000 C    0  0  0  0  0  0  0  0  0  0  0  0
   19.7035   -8.9436    0.0000 C    0  0  0  0  0  0  0  0  0  0  0  0
   21.1957  -10.7068    0.0000 C    0  0  0  0  0  0  0  0  0  0  0  0
   20.9559   -9.4003    0.0000 C    0  0  0  0  0  0  0  0  0  0  0  0
   18.9256  -12.8287    0.0000 C    0  0  0  0  0  0  0  0  0  0  0  0
   20.1735  -12.3712    0.0000 C    0  0  0  0  0  0  0  0  0  0  0  0
   18.7044  -14.1349    0.0000 C    0  0  0  0  0  0  0  0  0  0  0  0
   21.1955  -13.2277    0.0000 C    0  0  0  0  0  0  0  0  0  0  0  0
   19.7229  -14.9795    0.0000 C    0  0  0  0  0  0  0  0  0  0  0  0
   20.9736  -14.5341    0.0000 C    0  0  0  0  0  0  0  0  0  0  0  0
   12.1607   -7.7040    0.0000 C    0  0  0  0  0  0  0  0  0  0  0  0
   11.0842   -8.4863    0.0000 C    0  0  0  0  0  0  0  0  0  0  0  0
   12.0213   -6.3837    0.0000 C    0  0  0  0  0  0  0  0  0  0  0  0
    9.8681   -7.9478    0.0000 C    0  0  0  0  0  0  0  0  0  0  0  0
   10.8101   -5.8377    0.0000 C    0  0  0  0  0  0  0  0  0  0  0  0
    9.7287   -6.6276    0.0000 C    0  0  0  0  0  0  0  0  0  0  0  0
   15.6772  -10.1133    0.0000 Rh   0  0  0  0  0  0  0  0  0  0  0  0
   15.1824  -11.3437    0.0000 C    0  0  0  0  0  0  0  0  0  0  0  0
   14.6872  -12.5739    0.0000 N    0  0  0  0  0  0  0  0  0  0  0  0
   15.3653   -8.8265    0.0000 P    0  0  0  0  0  0  0  0  0  0  0  0
   11.2316   -9.8106    0.0000 P    0  0  0  0  0  0  0  0  0  0  0  0
   17.9036  -11.9721    0.0000 P    0  0  0  0  0  0  0  0  0  0  0  0
   17.9270   -6.4118    0.0000 C    0  0  0  0  0  0  0  0  0  0  0  0
   16.7176   -6.9637    0.0000 C    0  0  0  0  0  0  0  0  0  0  0  0
   19.0011   -7.1960    0.0000 C    0  0  0  0  0  0  0  0  0  0  0  0
   16.5706   -8.2826    0.0000 C    0  0  0  0  0  0  0  0  0  0  0  0
   18.8619   -8.5195    0.0000 C    0  0  0  0  0  0  0  0  0  0  0  0
   17.6488   -9.0589    0.0000 C    0  0  0  0  0  0  0  0  0  0  0  0
   11.8531   -9.1245    0.0000 C    0  0  0  0  0  0  0  0  0  0  0  0
   13.0662   -8.5851    0.0000 C    0  0  0  0  0  0  0  0  0  0  0  0
   11.7186  -10.4398    0.0000 C    0  0  0  0  0  0  0  0  0  0  0  0
   14.1522   -9.3659    0.0000 C    0  0  0  0  0  0  0  0  0  0  0  0
   12.7927  -11.2241    0.0000 C    0  0  0  0  0  0  0  0  0  0  0  0
   14.0136  -10.6892    0.0000 C    0  0  0  0  0  0  0  0  0  0  0  0
   12.9553   -6.2566    0.0000 C    0  0  0  0  0  0  0  0  0  0  0  0
   13.4947   -7.4697    0.0000 C    0  0  0  0  0  0  0  0  0  0  0  0
   13.7393   -5.1829    0.0000 C    0  0  0  0  0  0  0  0  0  0  0  0
   14.8181   -7.6090    0.0000 C    0  0  0  0  0  0  0  0  0  0  0  0
   15.0630   -5.3218    0.0000 C    0  0  0  0  0  0  0  0  0  0  0  0
   15.6024   -6.5348    0.0000 C    0  0  0  0  0  0  0  0  0  0  0  0
    9.7505  -14.6115    0.0000 C    0  0  0  0  0  0  0  0  0  0  0  0
    9.8379  -13.2888    0.0000 C    0  0  0  0  0  0  0  0  0  0  0  0
   10.8469  -15.3572    0.0000 C    0  0  0  0  0  0  0  0  0  0  0  0
   11.0306  -12.6966    0.0000 C    0  0  0  0  0  0  0  0  0  0  0  0
   12.0469  -14.7693    0.0000 C    0  0  0  0  0  0  0  0  0  0  0  0
   12.1387  -13.4391    0.0000 C    0  0  0  0  0  0  0  0  0  0  0  0
    9.3131   -8.5186    0.0000 C    0  0  0  0  0  0  0  0  0  0  0  0
    9.9011   -9.7187    0.0000 C    0  0  0  0  0  0  0  0  0  0  0  0
    7.9908   -8.4314    0.0000 C    0  0  0  0  0  0  0  0  0  0  0  0
    9.1634  -10.8192    0.0000 C    0  0  0  0  0  0  0  0  0  0  0  0
    7.2408   -9.5352    0.0000 C    0  0  0  0  0  0  0  0  0  0  0  0
    7.8332  -10.7275    0.0000 C    0  0  0  0  0  0  0  0  0  0  0  0
   16.9122   -9.6069    0.0000 O    0  0  0  0  0  0  0  0  0  0  0  0
   17.9643  -10.4294    0.0000 O    0  0  0  0  0  0  0  0  0  0  0  0
  1  2  1  0  0  0  0
  1  3  2  0  0  0  0
  2  4  2  0  0  0  0
  3  5  1  0  0  0  0
  4  6  1  0  0  0  0
  5  6  2  0  0  0  0
  7  8  1  0  0  0  0
  7  9  2  0  0  0  0
  8 10  2  0  0  0  0
  9 11  1  0  0  0  0
 10 12  1  0  0  0  0
 11 12  2  0  0  0  0
 13 14  1  0  0  0  0
 13 15  2  0  0  0  0
 14 16  2  0  0  0  0
 15 17  1  0  0  0  0
 16 18  1  0  0  0  0
 17 18  2  0  0  0  0
 19 20  1  0  0  0  0
 19 21  2  0  0  0  0
 20 22  2  0  0  0  0
 21 23  1  0  0  0  0
 22 24  1  0  0  0  0
 23 24  2  0  0  0  0
 26 27  3  0  0  0  0
 25 26  1  0  0  0  0
 25 28  1  0  0  0  0
 25 29  1  0  0  0  0
 25 30  1  0  0  0  0
 31 32  1  0  0  0  0
 31 33  2  0  0  0  0
 32 34  2  0  0  0  0
 33 35  1  0  0  0  0
 34 36  1  0  0  0  0
 35 36  2  0  0  0  0
 28 34  1  0  0  0  0
 37 38  1  0  0  0  0
 37 39  2  0  0  0  0
 38 40  2  0  0  0  0
 39 41  1  0  0  0  0
 40 42  1  0  0  0  0
 41 42  2  0  0  0  0
 28 40  1  0  0  0  0
 43 44  1  0  0  0  0
 43 45  2  0  0  0  0
 44 46  2  0  0  0  0
 45 47  1  0  0  0  0
 46 48  1  0  0  0  0
 47 48  2  0  0  0  0
 28 46  1  0  0  0  0
 49 50  1  0  0  0  0
 49 51  2  0  0  0  0
 50 52  2  0  0  0  0
 51 53  1  0  0  0  0
 52 54  1  0  0  0  0
 53 54  2  0  0  0  0
 29 52  1  0  0  0  0
 55 56  1  0  0  0  0
 55 57  2  0  0  0  0
 56 58  2  0  0  0  0
 57 59  1  0  0  0  0
 58 60  1  0  0  0  0
 59 60  2  0  0  0  0
 29 56  1  0  0  0  0
 20 29  1  0  0  0  0
 13 30  1  0  0  0  0
  7 30  1  0  0  0  0
  3 30  1  0  0  0  0
 25 61  1  0  0  0  0
 61 62  2  0  0  0  0
M  END
> <NMREDATA_VERSION>
1.1

> <NMREDATA_LEVEL>
0

> <NMREDATA_SOLVENT>
DCCl3

> <NMREDATA_TEMPERATURE>
300

> <NMREDATA_FORMULA>
C55H48NO2P3Rh

> <NMREDATA_SMILES>
O=[O][Rh](P(c1ccccc1)(c1ccccc1)c1ccccc1)(P(c1ccccc1)(c1ccccc1)c1ccccc1)(P(c1ccccc1)(c1ccccc1)c1ccccc1)C#N

> <NMREDATA_ASSIGNMENT>
Rh25, 1716.00, 25

> <NMREDATA_1D_103Rh>
1716.00, L=Rh25

$$$$

  ACD/LABS03282419122D

 49 55  0  0  0  0  0  0  0  0  1 V2000
   18.3630   -9.9239    0.0000 N    0  0  0  0  0  0  0  0  0  0  0  0
   17.9547   -8.6550    0.0000 C    0  0  0  0  0  0  0  0  0  0  0  0
   19.6589  -10.2082    0.0000 C    0  0  0  0  0  0  0  0  0  0  0  0
   18.8512   -7.6697    0.0000 C    0  0  0  0  0  0  0  0  0  0  0  0
   20.5554   -9.2229    0.0000 C    0  0  0  0  0  0  0  0  0  0  0  0
   20.1560   -7.9536    0.0000 C    0  0  0  0  0  0  0  0  0  0  0  0
   12.7361  -12.5599    0.0000 C    0  0  0  0  0  0  0  0  0  0  0  0
   12.2301  -11.3261    0.0000 C    0  0  0  0  0  0  0  0  0  0  0  0
   11.9195  -13.6070    0.0000 C    0  0  0  0  0  0  0  0  0  0  0  0
   10.9079  -11.1484    0.0000 C    0  0  0  0  0  0  0  0  0  0  0  0
   10.5969  -13.4297    0.0000 C    0  0  0  0  0  0  0  0  0  0  0  0
   10.1002  -12.1960    0.0000 C    0  0  0  0  0  0  0  0  0  0  0  0
   17.4664  -10.9000    0.0000 Rh   0  0  0  0  0  0  0  0  0  0  0  0
   17.2358   -9.5956    0.0000 C    0  0  0  0  0  0  0  0  0  0  0  0
   17.0052   -8.2908    0.0000 N    0  0  0  0  0  0  0  0  0  0  0  0
   17.0937  -12.1782    0.0000 P    0  0  0  0  0  0  0  0  0  0  0  0
   13.0467  -10.2700    0.0000 P    0  0  0  0  0  0  0  0  0  0  0  0
   13.8104  -10.7668    0.0000 C    0  0  0  0  0  0  0  0  0  0  0  0
   14.7239  -11.7255    0.0000 C    0  0  0  0  0  0  0  0  0  0  0  0
   14.1742   -9.4979    0.0000 C    0  0  0  0  0  0  0  0  0  0  0  0
   16.0198  -11.3972    0.0000 C    0  0  0  0  0  0  0  0  0  0  0  0
   15.4516   -9.1695    0.0000 C    0  0  0  0  0  0  0  0  0  0  0  0
   16.3837  -10.1283    0.0000 C    0  0  0  0  0  0  0  0  0  0  0  0
   20.5910  -12.6043    0.0000 C    0  0  0  0  0  0  0  0  0  0  0  0
   19.3928  -12.0272    0.0000 C    0  0  0  0  0  0  0  0  0  0  0  0
   20.6794  -13.9354    0.0000 C    0  0  0  0  0  0  0  0  0  0  0  0
   18.2919  -12.7638    0.0000 C    0  0  0  0  0  0  0  0  0  0  0  0
   19.5789  -14.6813    0.0000 C    0  0  0  0  0  0  0  0  0  0  0  0
   18.3807  -14.0953    0.0000 C    0  0  0  0  0  0  0  0  0  0  0  0
   16.6676  -15.6751    0.0000 C    0  0  0  0  0  0  0  0  0  0  0  0
   17.2536  -14.4769    0.0000 C    0  0  0  0  0  0  0  0  0  0  0  0
   15.3365  -15.7640    0.0000 C    0  0  0  0  0  0  0  0  0  0  0  0
   16.5081  -13.3764    0.0000 C    0  0  0  0  0  0  0  0  0  0  0  0
   14.5999  -14.6635    0.0000 C    0  0  0  0  0  0  0  0  0  0  0  0
   15.1855  -13.4653    0.0000 C    0  0  0  0  0  0  0  0  0  0  0  0
    8.0321   -9.8621    0.0000 C    0  0  0  0  0  0  0  0  0  0  0  0
    9.3014  -10.2700    0.0000 C    0  0  0  0  0  0  0  0  0  0  0  0
    7.7571   -8.5662    0.0000 C    0  0  0  0  0  0  0  0  0  0  0  0
   10.2864   -9.3828    0.0000 C    0  0  0  0  0  0  0  0  0  0  0  0
    8.7421   -7.6697    0.0000 C    0  0  0  0  0  0  0  0  0  0  0  0
   10.0114   -8.0868    0.0000 C    0  0  0  0  0  0  0  0  0  0  0  0
   12.4078   -6.5869    0.0000 C    0  0  0  0  0  0  0  0  0  0  0  0
   13.4550   -7.4124    0.0000 C    0  0  0  0  0  0  0  0  0  0  0  0
   12.5944   -5.2732    0.0000 C    0  0  0  0  0  0  0  0  0  0  0  0
   14.6795   -6.9153    0.0000 C    0  0  0  0  0  0  0  0  0  0  0  0
   13.8277   -4.7761    0.0000 C    0  0  0  0  0  0  0  0  0  0  0  0
   14.8660   -5.5927    0.0000 C    0  0  0  0  0  0  0  0  0  0  0  0
   18.5673  -11.6455    0.0000 O    0  0  0  0  0  0  0  0  0  0  0  0
   19.7655  -11.0688    0.0000 O    0  0  0  0  0  0  0  0  0  0  0  0
  1  2  1  0  0  0  0
  1  3  2  0  0  0  0
  2  4  2  0  0  0  0
  3  5  1  0  0  0  0
  4  6  1  0  0  0  0
  5  6  2  0  0  0  0
  7  8  1  0  0  0  0
  7  9  2  0  0  0  0
  8 10  2  0  0  0  0
  9 11  1  0  0  0  0
 10 12  1  0  0  0  0
 11 12  2  0  0  0  0
 14 15  3  0  0  0  0
 13 14  1  0  0  0  0
 13 16  1  0  0  0  0
 13 17  1  0  0  0  0
 18 19  1  0  0  0  0
 18 20  2  0  0  0  0
 19 21  2  0  0  0  0
 20 22  1  0  0  0  0
 21 23  1  0  0  0  0
 22 23  2  0  0  0  0
 16 21  1  0  0  0  0
 24 25  1  0  0  0  0
 24 26  2  0  0  0  0
 25 27  2  0  0  0  0
 26 28  1  0  0  0  0
 27 29  1  0  0  0  0
 28 29  2  0  0  0  0
 16 27  1  0  0  0  0
 30 31  1  0  0  0  0
 30 32  2  0  0  0  0
 31 33  2  0  0  0  0
 32 34  1  0  0  0  0
 33 35  1  0  0  0  0
 34 35  2  0  0  0  0
 16 33  1  0  0  0  0
 36 37  1  0  0  0  0
 36 38  2  0  0  0  0
 37 39  2  0  0  0  0
 38 40  1  0  0  0  0
 39 41  1  0  0  0  0
 40 41  2  0  0  0  0
 17 39  1  0  0  0  0
 42 43  1  0  0  0  0
 42 44  2  0  0  0  0
 43 45  2  0  0  0  0
 44 46  1  0  0  0  0
 45 47  1  0  0  0  0
 46 47  2  0  0  0  0
 17 43  1  0  0  0  0
  8 17  1  0  0  0  0
 13 48  1  0  0  0  0
 48 49  2  0  0  0  0
  1 13  1  0  0  0  0
M  END
> <NMREDATA_VERSION>
1.1

> <NMREDATA_LEVEL>
0

> <NMREDATA_SOLVENT>
DCCl3

> <NMREDATA_TEMPERATURE>
300

> <NMREDATA_FORMULA>
C42H38N2O2P2Rh

> <NMREDATA_SMILES>
O=[O][Rh](P(c1ccccc1)(c1ccccc1)c1ccccc1)(P(c1ccccc1)(c1ccccc1)c1ccccc1)(N1=CC=CC=C1)C#N

> <NMREDATA_ASSIGNMENT>
Rh13, 2003.00, 13

> <NMREDATA_1D_103Rh>
2003.00, L=Rh13

$$$$

  ACD/LABS03282419152D

 81 92  0  0  0  0  0  0  0  0  1 V2000
   17.5597  -15.2301    0.0000 C    0  0  0  0  0  0  0  0  0  0  0  0
   18.8629  -14.9998    0.0000 C    0  0  0  0  0  0  0  0  0  0  0  0
   17.0985  -16.4720    0.0000 C    0  0  0  0  0  0  0  0  0  0  0  0
   19.7233  -16.0194    0.0000 C    0  0  0  0  0  0  0  0  0  0  0  0
   17.9497  -17.4915    0.0000 C    0  0  0  0  0  0  0  0  0  0  0  0
   19.2621  -17.2697    0.0000 C    0  0  0  0  0  0  0  0  0  0  0  0
   14.3146  -18.4667    0.0000 C    0  0  0  0  0  0  0  0  0  0  0  0
   13.0642  -18.9102    0.0000 C    0  0  0  0  0  0  0  0  0  0  0  0
   14.5454  -17.1543    0.0000 C    0  0  0  0  0  0  0  0  0  0  0  0
   12.0446  -18.0590    0.0000 C    0  0  0  0  0  0  0  0  0  0  0  0
   13.5344  -16.2946    0.0000 C    0  0  0  0  0  0  0  0  0  0  0  0
   12.2840  -16.7466    0.0000 C    0  0  0  0  0  0  0  0  0  0  0  0
   16.0164  -18.0146    0.0000 C    0  0  0  0  0  0  0  0  0  0  0  0
   15.0066  -18.8659    0.0000 C    0  0  0  0  0  0  0  0  0  0  0  0
   17.2668  -18.4667    0.0000 C    0  0  0  0  0  0  0  0  0  0  0  0
   15.2369  -20.1782    0.0000 C    0  0  0  0  0  0  0  0  0  0  0  0
   17.4977  -19.7791    0.0000 C    0  0  0  0  0  0  0  0  0  0  0  0
   16.4776  -20.6303    0.0000 C    0  0  0  0  0  0  0  0  0  0  0  0
   12.5143   -4.5992    0.0000 C    0  0  0  0  0  0  0  0  0  0  0  0
   13.7647   -5.0513    0.0000 C    0  0  0  0  0  0  0  0  0  0  0  0
   12.2840   -3.2868    0.0000 C    0  0  0  0  0  0  0  0  0  0  0  0
   14.7848   -4.2000    0.0000 C    0  0  0  0  0  0  0  0  0  0  0  0
   13.3036   -2.4356    0.0000 C    0  0  0  0  0  0  0  0  0  0  0  0
   14.5539   -2.8877    0.0000 C    0  0  0  0  0  0  0  0  0  0  0  0
   16.1495   -7.1529    0.0000 C    0  0  0  0  0  0  0  0  0  0  0  0
   15.2988   -6.1328    0.0000 C    0  0  0  0  0  0  0  0  0  0  0  0
   17.4533   -6.9220    0.0000 C    0  0  0  0  0  0  0  0  0  0  0  0
   15.7503   -4.8829    0.0000 C    0  0  0  0  0  0  0  0  0  0  0  0
   17.9145   -5.6722    0.0000 C    0  0  0  0  0  0  0  0  0  0  0  0
   17.0627   -4.6521    0.0000 C    0  0  0  0  0  0  0  0  0  0  0  0
   11.8320   -5.5744    0.0000 C    0  0  0  0  0  0  0  0  0  0  0  0
   12.6832   -6.5939    0.0000 C    0  0  0  0  0  0  0  0  0  0  0  0
   10.5196   -5.7961    0.0000 C    0  0  0  0  0  0  0  0  0  0  0  0
   12.2220   -7.8358    0.0000 C    0  0  0  0  0  0  0  0  0  0  0  0
   10.0584   -7.0465    0.0000 C    0  0  0  0  0  0  0  0  0  0  0  0
   10.9182   -8.0661    0.0000 C    0  0  0  0  0  0  0  0  0  0  0  0
    9.1185  -12.1886    0.0000 C    0  0  0  0  0  0  0  0  0  0  0  0
   10.2711  -12.8539    0.0000 C    0  0  0  0  0  0  0  0  0  0  0  0
    9.1185  -10.8682    0.0000 C    0  0  0  0  0  0  0  0  0  0  0  0
   11.4237  -12.1886    0.0000 C    0  0  0  0  0  0  0  0  0  0  0  0
   10.2711  -10.2029    0.0000 C    0  0  0  0  0  0  0  0  0  0  0  0
   11.4237  -10.8682    0.0000 C    0  0  0  0  0  0  0  0  0  0  0  0
   15.2369  -10.5578    0.0000 C    0  0  0  0  0  0  0  0  0  0  0  0
   14.5716  -11.7013    0.0000 C    0  0  0  0  0  0  0  0  0  0  0  0
   14.5716   -9.4052    0.0000 C    0  0  0  0  0  0  0  0  0  0  0  0
   13.2416  -11.7013    0.0000 C    0  0  0  0  0  0  0  0  0  0  0  0
   13.2416   -9.4052    0.0000 C    0  0  0  0  0  0  0  0  0  0  0  0
   12.5769  -10.5578    0.0000 C    0  0  0  0  0  0  0  0  0  0  0  0
   11.3265  -16.1439    0.0000 C    0  0  0  0  0  0  0  0  0  0  0  0
   12.1777  -15.1238    0.0000 C    0  0  0  0  0  0  0  0  0  0  0  0
   10.0141  -15.9130    0.0000 C    0  0  0  0  0  0  0  0  0  0  0  0
   11.7256  -13.8734    0.0000 C    0  0  0  0  0  0  0  0  0  0  0  0
    9.5615  -14.6626    0.0000 C    0  0  0  0  0  0  0  0  0  0  0  0
   10.4133  -13.6431    0.0000 C    0  0  0  0  0  0  0  0  0  0  0  0
   16.7528   -8.4033    0.0000 C    0  0  0  0  0  0  0  0  0  0  0  0
   18.0828   -8.4033    0.0000 C    0  0  0  0  0  0  0  0  0  0  0  0
   16.0875   -9.5559    0.0000 C    0  0  0  0  0  0  0  0  0  0  0  0
   18.7475   -9.5559    0.0000 C    0  0  0  0  0  0  0  0  0  0  0  0
   16.7528  -10.7085    0.0000 C    0  0  0  0  0  0  0  0  0  0  0  0
   18.0828  -10.7085    0.0000 C    0  0  0  0  0  0  0  0  0  0  0  0
   15.2988  -13.8472    0.0000 Rh   0  0  0  0  0  0  0  0  0  0  0  0
   16.4423  -13.1819    0.0000 C    0  0  0  0  0  0  0  0  0  0  0  0
   17.5949  -12.5167    0.0000 N    0  0  0  0  0  0  0  0  0  0  0  0
   18.7475  -11.8519    0.0000 B    0  0  0  0  0  0  0  0  0  0  0  0
   19.5987  -12.8715    0.0000 C    0  0  0  0  0  0  0  0  0  0  0  0
   19.1467  -14.1219    0.0000 C    0  0  0  0  0  0  0  0  0  0  0  0
   20.9111  -12.6412    0.0000 C    0  0  0  0  0  0  0  0  0  0  0  0
   19.9979  -15.1414    0.0000 C    0  0  0  0  0  0  0  0  0  0  0  0
   21.7629  -13.6607    0.0000 C    0  0  0  0  0  0  0  0  0  0  0  0
   21.3103  -14.9111    0.0000 C    0  0  0  0  0  0  0  0  0  0  0  0
   19.9007  -11.1963    0.0000 C    0  0  0  0  0  0  0  0  0  0  0  0
   19.9007   -9.8663    0.0000 C    0  0  0  0  0  0  0  0  0  0  0  0
   21.0533  -11.8519    0.0000 C    0  0  0  0  0  0  0  0  0  0  0  0
   21.0533   -9.2010    0.0000 C    0  0  0  0  0  0  0  0  0  0  0  0
   22.2059  -11.1963    0.0000 C    0  0  0  0  0  0  0  0  0  0  0  0
   22.2059   -9.8663    0.0000 C    0  0  0  0  0  0  0  0  0  0  0  0
   14.2793  -14.6985    0.0000 H    0  0  0  0  0  0  0  0  0  0  0  0
   16.5396  -14.3084    0.0000 H    0  0  0  0  0  0  0  0  0  0  0  0
   12.5769  -12.8539    0.0000 P    0  0  0  0  0  0  0  0  0  0  0  0
   13.9956   -6.3636    0.0000 P    0  0  0  0  0  0  0  0  0  0  0  0
   15.7861  -16.7023    0.0000 P    0  0  0  0  0  0  0  0  0  0  0  0
  1  2  1  0  0  0  0
  1  3  2  0  0  0  0
  2  4  2  0  0  0  0
  3  5  1  0  0  0  0
  4  6  1  0  0  0  0
  5  6  2  0  0  0  0
  7  8  1  0  0  0  0
  7  9  2  0  0  0  0
  8 10  2  0  0  0  0
  9 11  1  0  0  0  0
 10 12  1  0  0  0  0
 11 12  2  0  0  0  0
 13 14  1  0  0  0  0
 13 15  2  0  0  0  0
 14 16  2  0  0  0  0
 15 17  1  0  0  0  0
 16 18  1  0  0  0  0
 17 18  2  0  0  0  0
 19 20  1  0  0  0  0
 19 21  2  0  0  0  0
 20 22  2  0  0  0  0
 21 23  1  0  0  0  0
 22 24  1  0  0  0  0
 23 24  2  0  0  0  0
 25 26  1  0  0  0  0
 25 27  2  0  0  0  0
 26 28  2  0  0  0  0
 27 29  1  0  0  0  0
 28 30  1  0  0  0  0
 29 30  2  0  0  0  0
 31 32  1  0  0  0  0
 31 33  2  0  0  0  0
 32 34  2  0  0  0  0
 33 35  1  0  0  0  0
 34 36  1  0  0  0  0
 35 36  2  0  0  0  0
 37 38  1  0  0  0  0
 37 39  2  0  0  0  0
 38 40  2  0  0  0  0
 39 41  1  0  0  0  0
 40 42  1  0  0  0  0
 41 42  2  0  0  0  0
 43 44  1  0  0  0  0
 43 45  2  0  0  0  0
 44 46  2  0  0  0  0
 45 47  1  0  0  0  0
 46 48  1  0  0  0  0
 47 48  2  0  0  0  0
 49 50  1  0  0  0  0
 49 51  2  0  0  0  0
 50 52  2  0  0  0  0
 51 53  1  0  0  0  0
 52 54  1  0  0  0  0
 53 54  2  0  0  0  0
 55 56  1  0  0  0  0
 55 57  2  0  0  0  0
 56 58  2  0  0  0  0
 57 59  1  0  0  0  0
 58 60  1  0  0  0  0
 59 60  2  0  0  0  0
 62 63  3  0  0  0  0
 61 62  1  0  0  0  0
 63 64  1  0  0  0  0
 65 66  1  0  0  0  0
 65 67  2  0  0  0  0
 66 68  2  0  0  0  0
 67 69  1  0  0  0  0
 68 70  1  0  0  0  0
 69 70  2  0  0  0  0
 64 65  1  0  0  0  0
 71 72  1  0  0  0  0
 71 73  2  0  0  0  0
 72 74  2  0  0  0  0
 73 75  1  0  0  0  0
 74 76  1  0  0  0  0
 75 76  2  0  0  0  0
 64 71  1  0  0  0  0
 60 64  1  0  0  0  0
 61 77  1  0  0  0  0
 61 78  1  0  0  0  0
 61 79  1  0  0  0  0
 61 80  1  0  0  0  0
 61 81  1  0  0  0  0
 52 79  1  0  0  0  0
 46 79  1  0  0  0  0
 40 79  1  0  0  0  0
 32 80  1  0  0  0  0
 26 80  1  0  0  0  0
 20 80  1  0  0  0  0
 13 81  1  0  0  0  0
  9 81  1  0  0  0  0
  3 81  1  0  0  0  0
M  END
> <NMREDATA_VERSION>
1.1

> <NMREDATA_LEVEL>
0

> <NMREDATA_SOLVENT>
DCCl3

> <NMREDATA_TEMPERATURE>
247

> <NMREDATA_FORMULA>
C73H66BNP3Rh

> <NMREDATA_SMILES>
c1ccc(cc1)[B](c1ccccc1)(c1ccccc1)N#C[RhH2](P(c1ccccc1)(c1ccccc1)c1ccccc1)(P(c1ccccc1)(c1ccccc1)c1ccccc1)P(c1ccccc1)(c1ccccc1)c1ccccc1

> <NMREDATA_ASSIGNMENT>
Rh61, -609.00, 61

> <NMREDATA_1D_103Rh>
-609.00, L=Rh61

$$$$

  ACD/LABS03282419162D

 68 77  0  0  0  0  0  0  0  0  1 V2000
   16.1954  -10.7245    0.0000 N    0  0  0  0  0  0  0  0  0  0  0  0
   15.7423   -9.4697    0.0000 C    0  0  0  0  0  0  0  0  0  0  0  0
   17.5002  -10.9454    0.0000 C    0  0  0  0  0  0  0  0  0  0  0  0
   16.5941   -8.4555    0.0000 C    0  0  0  0  0  0  0  0  0  0  0  0
   18.3561   -9.9240    0.0000 C    0  0  0  0  0  0  0  0  0  0  0  0
   17.8986   -8.6769    0.0000 C    0  0  0  0  0  0  0  0  0  0  0  0
   11.3217  -14.7497    0.0000 C    0  0  0  0  0  0  0  0  0  0  0  0
   10.4735  -15.7755    0.0000 C    0  0  0  0  0  0  0  0  0  0  0  0
   12.6347  -14.9753    0.0000 C    0  0  0  0  0  0  0  0  0  0  0  0
   10.9305  -17.0224    0.0000 C    0  0  0  0  0  0  0  0  0  0  0  0
   13.0882  -16.2305    0.0000 C    0  0  0  0  0  0  0  0  0  0  0  0
   12.2444  -17.2486    0.0000 C    0  0  0  0  0  0  0  0  0  0  0  0
   14.2703  -16.1142    0.0000 C    0  0  0  0  0  0  0  0  0  0  0  0
   15.2916  -16.9701    0.0000 C    0  0  0  0  0  0  0  0  0  0  0  0
   14.5038  -14.8052    0.0000 C    0  0  0  0  0  0  0  0  0  0  0  0
   16.5388  -16.5126    0.0000 C    0  0  0  0  0  0  0  0  0  0  0  0
   15.7510  -14.3476    0.0000 C    0  0  0  0  0  0  0  0  0  0  0  0
   16.7723  -15.2035    0.0000 C    0  0  0  0  0  0  0  0  0  0  0  0
   13.0286  -12.7144    0.0000 C    0  0  0  0  0  0  0  0  0  0  0  0
   11.7723  -12.2656    0.0000 C    0  0  0  0  0  0  0  0  0  0  0  0
   14.0328  -11.8619    0.0000 C    0  0  0  0  0  0  0  0  0  0  0  0
   11.5278  -10.9686    0.0000 C    0  0  0  0  0  0  0  0  0  0  0  0
   13.7860  -10.5514    0.0000 C    0  0  0  0  0  0  0  0  0  0  0  0
   12.5370  -10.1074    0.0000 C    0  0  0  0  0  0  0  0  0  0  0  0
    8.1644   -8.2997    0.0000 C    0  0  0  0  0  0  0  0  0  0  0  0
    9.1897   -9.1476    0.0000 C    0  0  0  0  0  0  0  0  0  0  0  0
    8.3898   -6.9860    0.0000 C    0  0  0  0  0  0  0  0  0  0  0  0
   10.4341   -8.6783    0.0000 C    0  0  0  0  0  0  0  0  0  0  0  0
    9.6340   -6.5158    0.0000 C    0  0  0  0  0  0  0  0  0  0  0  0
   10.6558   -7.3720    0.0000 C    0  0  0  0  0  0  0  0  0  0  0  0
   10.2336  -12.8211    0.0000 C    0  0  0  0  0  0  0  0  0  0  0  0
   11.0816  -11.7958    0.0000 C    0  0  0  0  0  0  0  0  0  0  0  0
    8.9202  -12.5952    0.0000 C    0  0  0  0  0  0  0  0  0  0  0  0
   10.6117  -10.5523    0.0000 C    0  0  0  0  0  0  0  0  0  0  0  0
    8.4627  -11.3480    0.0000 C    0  0  0  0  0  0  0  0  0  0  0  0
    9.3109  -10.3222    0.0000 C    0  0  0  0  0  0  0  0  0  0  0  0
   12.1045   -6.0689    0.0000 C    0  0  0  0  0  0  0  0  0  0  0  0
   11.4471   -7.2253    0.0000 C    0  0  0  0  0  0  0  0  0  0  0  0
   13.4399   -6.0616    0.0000 C    0  0  0  0  0  0  0  0  0  0  0  0
   12.1250   -8.3745    0.0000 C    0  0  0  0  0  0  0  0  0  0  0  0
   14.1101   -7.2064    0.0000 C    0  0  0  0  0  0  0  0  0  0  0  0
   13.4527   -8.3628    0.0000 C    0  0  0  0  0  0  0  0  0  0  0  0
   18.0370  -19.2207    0.0000 C    0  0  0  0  0  0  0  0  0  0  0  0
   19.3411  -19.0015    0.0000 C    0  0  0  0  0  0  0  0  0  0  0  0
   17.1847  -18.1962    0.0000 C    0  0  0  0  0  0  0  0  0  0  0  0
   19.8057  -17.7536    0.0000 C    0  0  0  0  0  0  0  0  0  0  0  0
   17.6486  -16.9492    0.0000 C    0  0  0  0  0  0  0  0  0  0  0  0
   18.9652  -16.7262    0.0000 C    0  0  0  0  0  0  0  0  0  0  0  0
   15.3439  -11.7382    0.0000 Rh   0  0  0  0  0  0  0  0  0  0  0  0
   16.1881  -12.7581    0.0000 C    0  0  0  0  0  0  0  0  0  0  0  0
   17.2045  -13.6214    0.0000 N    0  0  0  0  0  0  0  0  0  0  0  0
   19.4247  -15.4869    0.0000 B    0  0  0  0  0  0  0  0  0  0  0  0
   19.8845  -14.2471    0.0000 C    0  0  0  0  0  0  0  0  0  0  0  0
   19.0369  -13.2144    0.0000 C    0  0  0  0  0  0  0  0  0  0  0  0
   21.1934  -14.0197    0.0000 C    0  0  0  0  0  0  0  0  0  0  0  0
   19.5009  -11.9674    0.0000 C    0  0  0  0  0  0  0  0  0  0  0  0
   21.6576  -12.7722    0.0000 C    0  0  0  0  0  0  0  0  0  0  0  0
   20.8130  -11.7521    0.0000 C    0  0  0  0  0  0  0  0  0  0  0  0
   20.6722  -15.9511    0.0000 C    0  0  0  0  0  0  0  0  0  0  0  0
   20.8929  -17.2549    0.0000 C    0  0  0  0  0  0  0  0  0  0  0  0
   21.6923  -15.1065    0.0000 C    0  0  0  0  0  0  0  0  0  0  0  0
   22.1399  -17.7189    0.0000 C    0  0  0  0  0  0  0  0  0  0  0  0
   22.9403  -15.5710    0.0000 C    0  0  0  0  0  0  0  0  0  0  0  0
   23.1600  -16.8755    0.0000 C    0  0  0  0  0  0  0  0  0  0  0  0
   15.1119  -10.4363    0.0000 H    0  0  0  0  0  0  0  0  0  0  0  0
   16.6448  -11.9670    0.0000 H    0  0  0  0  0  0  0  0  0  0  0  0
   11.4599   -9.5265    0.0000 P    0  0  0  0  0  0  0  0  0  0  0  0
   13.4862  -13.9616    0.0000 P    0  0  0  0  0  0  0  0  0  0  0  0
  1  2  1  0  0  0  0
  1  3  2  0  0  0  0
  2  4  2  0  0  0  0
  3  5  1  0  0  0  0
  4  6  1  0  0  0  0
  5  6  2  0  0  0  0
  7  8  1  0  0  0  0
  7  9  2  0  0  0  0
  8 10  2  0  0  0  0
  9 11  1  0  0  0  0
 10 12  1  0  0  0  0
 11 12  2  0  0  0  0
 13 14  1  0  0  0  0
 13 15  2  0  0  0  0
 14 16  2  0  0  0  0
 15 17  1  0  0  0  0
 16 18  1  0  0  0  0
 17 18  2  0  0  0  0
 19 20  1  0  0  0  0
 19 21  2  0  0  0  0
 20 22  2  0  0  0  0
 21 23  1  0  0  0  0
 22 24  1  0  0  0  0
 23 24  2  0  0  0  0
 25 26  1  0  0  0  0
 25 27  2  0  0  0  0
 26 28  2  0  0  0  0
 27 29  1  0  0  0  0
 28 30  1  0  0  0  0
 29 30  2  0  0  0  0
 31 32  1  0  0  0  0
 31 33  2  0  0  0  0
 32 34  2  0  0  0  0
 33 35  1  0  0  0  0
 34 36  1  0  0  0  0
 35 36  2  0  0  0  0
 37 38  1  0  0  0  0
 37 39  2  0  0  0  0
 38 40  2  0  0  0  0
 39 41  1  0  0  0  0
 40 42  1  0  0  0  0
 41 42  2  0  0  0  0
 43 44  1  0  0  0  0
 43 45  2  0  0  0  0
 44 46  2  0  0  0  0
 45 47  1  0  0  0  0
 46 48  1  0  0  0  0
 47 48  2  0  0  0  0
 50 51  3  0  0  0  0
 49 50  1  0  0  0  0
 51 52  1  0  0  0  0
 53 54  1  0  0  0  0
 53 55  2  0  0  0  0
 54 56  2  0  0  0  0
 55 57  1  0  0  0  0
 56 58  1  0  0  0  0
 57 58  2  0  0  0  0
 52 53  1  0  0  0  0
 59 60  1  0  0  0  0
 59 61  2  0  0  0  0
 60 62  2  0  0  0  0
 61 63  1  0  0  0  0
 62 64  1  0  0  0  0
 63 64  2  0  0  0  0
 52 59  1  0  0  0  0
 48 52  1  0  0  0  0
 49 65  1  0  0  0  0
 49 66  1  0  0  0  0
 49 67  1  0  0  0  0
 49 68  1  0  0  0  0
 40 67  1  0  0  0  0
 34 67  1  0  0  0  0
 28 67  1  0  0  0  0
 19 68  1  0  0  0  0
 15 68  1  0  0  0  0
  9 68  1  0  0  0  0
  1 49  1  0  0  0  0
M  END
> <NMREDATA_VERSION>
1.1

> <NMREDATA_LEVEL>
0

> <NMREDATA_SOLVENT>
toluene-d8

> <NMREDATA_TEMPERATURE>
300

> <NMREDATA_FORMULA>
C60H56BN2P2Rh

> <NMREDATA_SMILES>
c1ccc(cc1)[B](c1ccccc1)(c1ccccc1)N#C[RhH2](P(c1ccccc1)(c1ccccc1)c1ccccc1)(P(c1ccccc1)(c1ccccc1)c1ccccc1)N1=CC=CC=C1

> <NMREDATA_ASSIGNMENT>
Rh49, 2.00, 49

> <NMREDATA_1D_103Rh>
2.00, L=Rh49

$$$$

  ACD/LABS03282419162D

 81 92  0  0  0  0  0  0  0  0  2 V2000
   17.5597  -15.2301    0.0000 C    0  0  0  0  0  0  0  0  0  0  0  0
   18.8629  -14.9998    0.0000 C    0  0  0  0  0  0  0  0  0  0  0  0
   17.0985  -16.4720    0.0000 C    0  0  0  0  0  0  0  0  0  0  0  0
   19.7233  -16.0194    0.0000 C    0  0  0  0  0  0  0  0  0  0  0  0
   17.9497  -17.4915    0.0000 C    0  0  0  0  0  0  0  0  0  0  0  0
   19.2621  -17.2697    0.0000 C    0  0  0  0  0  0  0  0  0  0  0  0
   14.3146  -18.4667    0.0000 C    0  0  0  0  0  0  0  0  0  0  0  0
   13.0642  -18.9102    0.0000 C    0  0  0  0  0  0  0  0  0  0  0  0
   14.5454  -17.1543    0.0000 C    0  0  0  0  0  0  0  0  0  0  0  0
   12.0446  -18.0590    0.0000 C    0  0  0  0  0  0  0  0  0  0  0  0
   13.5344  -16.2946    0.0000 C    0  0  0  0  0  0  0  0  0  0  0  0
   12.2840  -16.7466    0.0000 C    0  0  0  0  0  0  0  0  0  0  0  0
   16.0164  -18.0146    0.0000 C    0  0  0  0  0  0  0  0  0  0  0  0
   15.0066  -18.8659    0.0000 C    0  0  0  0  0  0  0  0  0  0  0  0
   17.2668  -18.4667    0.0000 C    0  0  0  0  0  0  0  0  0  0  0  0
   15.2369  -20.1782    0.0000 C    0  0  0  0  0  0  0  0  0  0  0  0
   17.4977  -19.7791    0.0000 C    0  0  0  0  0  0  0  0  0  0  0  0
   16.4776  -20.6303    0.0000 C    0  0  0  0  0  0  0  0  0  0  0  0
   12.5143   -4.5992    0.0000 C    0  0  0  0  0  0  0  0  0  0  0  0
   13.7647   -5.0513    0.0000 C    0  0  0  0  0  0  0  0  0  0  0  0
   12.2840   -3.2868    0.0000 C    0  0  0  0  0  0  0  0  0  0  0  0
   14.7848   -4.2000    0.0000 C    0  0  0  0  0  0  0  0  0  0  0  0
   13.3036   -2.4356    0.0000 C    0  0  0  0  0  0  0  0  0  0  0  0
   14.5539   -2.8877    0.0000 C    0  0  0  0  0  0  0  0  0  0  0  0
   16.1495   -7.1529    0.0000 C    0  0  0  0  0  0  0  0  0  0  0  0
   15.2988   -6.1328    0.0000 C    0  0  0  0  0  0  0  0  0  0  0  0
   17.4533   -6.9220    0.0000 C    0  0  0  0  0  0  0  0  0  0  0  0
   15.7503   -4.8829    0.0000 C    0  0  0  0  0  0  0  0  0  0  0  0
   17.9145   -5.6722    0.0000 C    0  0  0  0  0  0  0  0  0  0  0  0
   17.0627   -4.6521    0.0000 C    0  0  0  0  0  0  0  0  0  0  0  0
   11.8320   -5.5744    0.0000 C    0  0  0  0  0  0  0  0  0  0  0  0
   12.6832   -6.5939    0.0000 C    0  0  0  0  0  0  0  0  0  0  0  0
   10.5196   -5.7961    0.0000 C    0  0  0  0  0  0  0  0  0  0  0  0
   12.2220   -7.8358    0.0000 C    0  0  0  0  0  0  0  0  0  0  0  0
   10.0584   -7.0465    0.0000 C    0  0  0  0  0  0  0  0  0  0  0  0
   10.9182   -8.0661    0.0000 C    0  0  0  0  0  0  0  0  0  0  0  0
    9.1185  -12.1886    0.0000 C    0  0  0  0  0  0  0  0  0  0  0  0
   10.2711  -12.8539    0.0000 C    0  0  0  0  0  0  0  0  0  0  0  0
    9.1185  -10.8682    0.0000 C    0  0  0  0  0  0  0  0  0  0  0  0
   11.4237  -12.1886    0.0000 C    0  0  0  0  0  0  0  0  0  0  0  0
   10.2711  -10.2029    0.0000 C    0  0  0  0  0  0  0  0  0  0  0  0
   11.4237  -10.8682    0.0000 C    0  0  0  0  0  0  0  0  0  0  0  0
   15.2369  -10.5578    0.0000 C    0  0  0  0  0  0  0  0  0  0  0  0
   14.5716  -11.7013    0.0000 C    0  0  0  0  0  0  0  0  0  0  0  0
   14.5716   -9.4052    0.0000 C    0  0  0  0  0  0  0  0  0  0  0  0
   13.2416  -11.7013    0.0000 C    0  0  0  0  0  0  0  0  0  0  0  0
   13.2416   -9.4052    0.0000 C    0  0  0  0  0  0  0  0  0  0  0  0
   12.5769  -10.5578    0.0000 C    0  0  0  0  0  0  0  0  0  0  0  0
   11.3265  -16.1439    0.0000 C    0  0  0  0  0  0  0  0  0  0  0  0
   12.1777  -15.1238    0.0000 C    0  0  0  0  0  0  0  0  0  0  0  0
   10.0141  -15.9130    0.0000 C    0  0  0  0  0  0  0  0  0  0  0  0
   11.7256  -13.8734    0.0000 C    0  0  0  0  0  0  0  0  0  0  0  0
    9.5615  -14.6626    0.0000 C    0  0  0  0  0  0  0  0  0  0  0  0
   10.4133  -13.6431    0.0000 C    0  0  0  0  0  0  0  0  0  0  0  0
   16.7528   -8.4033    0.0000 C    0  0  0  0  0  0  0  0  0  0  0  0
   18.0828   -8.4033    0.0000 C    0  0  0  0  0  0  0  0  0  0  0  0
   16.0875   -9.5559    0.0000 C    0  0  0  0  0  0  0  0  0  0  0  0
   18.7475   -9.5559    0.0000 C    0  0  0  0  0  0  0  0  0  0  0  0
   16.7528  -10.7085    0.0000 C    0  0  0  0  0  0  0  0  0  0  0  0
   18.0828  -10.7085    0.0000 C    0  0  0  0  0  0  0  0  0  0  0  0
   15.2988  -13.8472    0.0000 Rh   0  3  0  0  0  0  0  0  0  0  0  0
   16.4423  -13.1819    0.0000 C    0  0  0  0  0  0  0  0  0  0  0  0
   17.5949  -12.5167    0.0000 N    0  0  0  0  0  0  0  0  0  0  0  0
   18.7475  -11.8519    0.0000 B    0  0  0  0  0  0  0  0  0  0  0  0
   19.5987  -12.8715    0.0000 C    0  0  0  0  0  0  0  0  0  0  0  0
   19.1467  -14.1219    0.0000 C    0  0  0  0  0  0  0  0  0  0  0  0
   20.9111  -12.6412    0.0000 C    0  0  0  0  0  0  0  0  0  0  0  0
   19.9979  -15.1414    0.0000 C    0  0  0  0  0  0  0  0  0  0  0  0
   21.7629  -13.6607    0.0000 C    0  0  0  0  0  0  0  0  0  0  0  0
   21.3103  -14.9111    0.0000 C    0  0  0  0  0  0  0  0  0  0  0  0
   19.9007  -11.1963    0.0000 C    0  0  0  0  0  0  0  0  0  0  0  0
   19.9007   -9.8663    0.0000 C    0  0  0  0  0  0  0  0  0  0  0  0
   21.0533  -11.8519    0.0000 C    0  0  0  0  0  0  0  0  0  0  0  0
   21.0533   -9.2010    0.0000 C    0  0  0  0  0  0  0  0  0  0  0  0
   22.2059  -11.1963    0.0000 C    0  0  0  0  0  0  0  0  0  0  0  0
   22.2059   -9.8663    0.0000 C    0  0  0  0  0  0  0  0  0  0  0  0
   12.5769  -12.8539    0.0000 P    0  0  0  0  0  0  0  0  0  0  0  0
   13.9956   -6.3636    0.0000 P    0  0  0  0  0  0  0  0  0  0  0  0
   15.7861  -16.7023    0.0000 P    0  0  0  0  0  0  0  0  0  0  0  0
   14.3095  -14.4217    0.0000 O    0  0  0  0  0  0  0  0  0  0  0  0
   14.0531  -15.2549    0.0000 O    0  0  0  0  0  0  0  0  0  0  0  0
  1  2  1  0  0  0  0
  1  3  2  0  0  0  0
  2  4  2  0  0  0  0
  3  5  1  0  0  0  0
  4  6  1  0  0  0  0
  5  6  2  0  0  0  0
  7  8  1  0  0  0  0
  7  9  2  0  0  0  0
  8 10  2  0  0  0  0
  9 11  1  0  0  0  0
 10 12  1  0  0  0  0
 11 12  2  0  0  0  0
 13 14  1  0  0  0  0
 13 15  2  0  0  0  0
 14 16  2  0  0  0  0
 15 17  1  0  0  0  0
 16 18  1  0  0  0  0
 17 18  2  0  0  0  0
 19 20  1  0  0  0  0
 19 21  2  0  0  0  0
 20 22  2  0  0  0  0
 21 23  1  0  0  0  0
 22 24  1  0  0  0  0
 23 24  2  0  0  0  0
 25 26  1  0  0  0  0
 25 27  2  0  0  0  0
 26 28  2  0  0  0  0
 27 29  1  0  0  0  0
 28 30  1  0  0  0  0
 29 30  2  0  0  0  0
 31 32  1  0  0  0  0
 31 33  2  0  0  0  0
 32 34  2  0  0  0  0
 33 35  1  0  0  0  0
 34 36  1  0  0  0  0
 35 36  2  0  0  0  0
 37 38  1  0  0  0  0
 37 39  2  0  0  0  0
 38 40  2  0  0  0  0
 39 41  1  0  0  0  0
 40 42  1  0  0  0  0
 41 42  2  0  0  0  0
 43 44  1  0  0  0  0
 43 45  2  0  0  0  0
 44 46  2  0  0  0  0
 45 47  1  0  0  0  0
 46 48  1  0  0  0  0
 47 48  2  0  0  0  0
 49 50  1  0  0  0  0
 49 51  2  0  0  0  0
 50 52  2  0  0  0  0
 51 53  1  0  0  0  0
 52 54  1  0  0  0  0
 53 54  2  0  0  0  0
 55 56  1  0  0  0  0
 55 57  2  0  0  0  0
 56 58  2  0  0  0  0
 57 59  1  0  0  0  0
 58 60  1  0  0  0  0
 59 60  2  0  0  0  0
 62 63  3  0  0  0  0
 61 62  1  0  0  0  0
 63 64  1  0  0  0  0
 65 66  1  0  0  0  0
 65 67  2  0  0  0  0
 66 68  2  0  0  0  0
 67 69  1  0  0  0  0
 68 70  1  0  0  0  0
 69 70  2  0  0  0  0
 64 65  1  0  0  0  0
 71 72  1  0  0  0  0
 71 73  2  0  0  0  0
 72 74  2  0  0  0  0
 73 75  1  0  0  0  0
 74 76  1  0  0  0  0
 75 76  2  0  0  0  0
 64 71  1  0  0  0  0
 60 64  1  0  0  0  0
 61 77  1  0  0  0  0
 61 78  1  0  0  0  0
 61 79  1  0  0  0  0
 52 77  1  0  0  0  0
 46 77  1  0  0  0  0
 40 77  1  0  0  0  0
 32 78  1  0  0  0  0
 26 78  1  0  0  0  0
 20 78  1  0  0  0  0
 13 79  1  0  0  0  0
  9 79  1  0  0  0  0
  3 79  1  0  0  0  0
 61 80  1  0  0  0  0
 80 81  2  0  0  0  0
M  END
> <NMREDATA_VERSION>
1.1

> <NMREDATA_LEVEL>
0

> <NMREDATA_SOLVENT>
toluene-d8

> <NMREDATA_TEMPERATURE>
247

> <NMREDATA_FORMULA>
C73H64BNO2P3Rh

> <NMREDATA_SMILES>
O=[O][Rh](P(c1ccccc1)(c1ccccc1)c1ccccc1)(P(c1ccccc1)(c1ccccc1)c1ccccc1)(P(c1ccccc1)(c1ccccc1)c1ccccc1)C#N[B](c1ccccc1)(c1ccccc1)c1ccccc1

> <NMREDATA_ASSIGNMENT>
Rh61, 1393.00, 61

> <NMREDATA_1D_103Rh>
1393.00, L=Rh61

$$$$

  ACD/LABS03282419182D

 38 40  0  0  0  0  0  0  0  0  1 V2000
   27.3192  -12.9555    0.0000 C    0  0  0  0  0  0  0  0  0  0  0  0
   27.3192  -14.2855    0.0000 C    0  0  0  0  0  0  0  0  0  0  0  0
   26.1673  -12.2905    0.0000 C    0  0  0  0  0  0  0  0  0  0  0  0
   26.1673  -14.9505    0.0000 C    0  0  0  0  0  0  0  0  0  0  0  0
   25.0155  -12.9555    0.0000 C    0  0  0  0  0  0  0  0  0  0  0  0
   25.0155  -14.2855    0.0000 C    0  0  0  0  0  0  0  0  0  0  0  0
   24.4586   -3.4203    0.0000 O    0  0  0  0  0  0  0  0  0  0  0  0
   24.4580   -4.7508    0.0000 N    0  0  0  0  0  0  0  0  0  0  0  0
   23.3062   -5.4161    0.0000 C    0  0  0  0  0  0  0  0  0  0  0  0
   22.1550   -4.7515    0.0000 C    0  0  0  0  0  0  0  0  0  0  0  0
   23.3059   -6.7463    0.0000 C    0  0  0  0  0  0  0  0  0  0  0  0
   24.4572   -7.4110    0.0000 C    0  0  0  0  0  0  0  0  0  0  0  0
   22.1541   -7.4117    0.0000 N    0  0  0  0  0  0  0  0  0  0  0  0
   22.1538   -8.7419    0.0000 O    0  0  0  0  0  0  0  0  0  0  0  0
   15.0396   -5.9443    0.0000 O    0  0  0  0  0  0  0  0  0  0  0  0
   16.3653   -5.9525    0.0000 N    0  0  0  0  0  0  0  0  0  0  0  0
   17.0355   -7.0966    0.0000 C    0  0  0  0  0  0  0  0  0  0  0  0
   16.3708   -8.2479    0.0000 C    0  0  0  0  0  0  0  0  0  0  0  0
   18.3612   -7.1048    0.0000 C    0  0  0  0  0  0  0  0  0  0  0  0
   19.0258   -5.9536    0.0000 C    0  0  0  0  0  0  0  0  0  0  0  0
   19.0232   -8.2442    0.0000 N    0  0  0  0  0  0  0  0  0  0  0  0
   20.3410   -8.2478    0.0000 O    0  0  0  0  0  0  0  0  0  0  0  0
   21.0108   -9.3918    0.0000 Rh   0  0  0  0  0  0  0  0  0  0  0  0
   20.6663  -10.6766    0.0000 C    0  0  0  0  0  0  0  0  0  0  0  0
   20.3217  -11.9613    0.0000 N    0  0  0  0  0  0  0  0  0  0  0  0
   23.2029  -11.2169    0.0000 P    0  0  0  0  0  0  0  0  0  0  0  0
   22.9771  -12.5269    0.0000 C    0  0  0  0  0  0  0  0  0  0  0  0
   23.9987  -13.3774    0.0000 C    0  0  0  0  0  0  0  0  0  0  0  0
   21.7296  -12.9864    0.0000 C    0  0  0  0  0  0  0  0  0  0  0  0
   23.7728  -14.6875    0.0000 C    0  0  0  0  0  0  0  0  0  0  0  0
   21.5038  -14.2963    0.0000 C    0  0  0  0  0  0  0  0  0  0  0  0
   22.5254  -15.1469    0.0000 C    0  0  0  0  0  0  0  0  0  0  0  0
   24.4503  -10.7574    0.0000 C    0  0  0  0  0  0  0  0  0  0  0  0
   24.6761   -9.4474    0.0000 C    0  0  0  0  0  0  0  0  0  0  0  0
   25.4720  -11.6080    0.0000 C    0  0  0  0  0  0  0  0  0  0  0  0
   25.9236   -8.9880    0.0000 C    0  0  0  0  0  0  0  0  0  0  0  0
   26.7193  -11.1486    0.0000 C    0  0  0  0  0  0  0  0  0  0  0  0
   26.9452   -9.8386    0.0000 C    0  0  0  0  0  0  0  0  0  0  0  0
  1  2  1  0  0  0  0
  1  3  2  0  0  0  0
  2  4  2  0  0  0  0
  3  5  1  0  0  0  0
  4  6  1  0  0  0  0
  5  6  2  0  0  0  0
  7  8  1  0  0  0  0
  8  9  2  0  0  0  0
  9 10  1  0  0  0  0
  9 11  1  0  0  0  0
 11 12  1  0  0  0  0
 11 13  2  0  0  0  0
 13 14  1  0  0  0  0
 15 16  1  0  0  0  0
 16 17  2  0  0  0  0
 17 18  1  0  0  0  0
 17 19  1  0  0  0  0
 19 20  1  0  0  0  0
 19 21  2  0  0  0  0
 21 22  1  0  0  0  0
 22 23  1  0  0  0  0
 14 23  1  0  0  0  0
 24 25  3  0  0  0  0
 23 24  1  0  0  0  0
 23 26  1  0  0  0  0
 27 28  1  0  0  0  0
 27 29  2  0  0  0  0
 28 30  2  0  0  0  0
 29 31  1  0  0  0  0
 30 32  1  0  0  0  0
 31 32  2  0  0  0  0
 26 27  1  0  0  0  0
 33 34  1  0  0  0  0
 33 35  2  0  0  0  0
 34 36  2  0  0  0  0
 35 37  1  0  0  0  0
 36 38  1  0  0  0  0
 37 38  2  0  0  0  0
 26 33  1  0  0  0  0
  5 26  1  0  0  0  0
M  END
> <NMREDATA_VERSION>
1.1

> <NMREDATA_LEVEL>
0

> <NMREDATA_SOLVENT>
DCCl3

> <NMREDATA_TEMPERATURE>
298

> <NMREDATA_FORMULA>
C27H30N5O4PRh

> <NMREDATA_SMILES>
O/N=C(/C(=N/O[Rh](P(c1ccccc1)(c1ccccc1)c1ccccc1)(O/N=C(/C(=N/O)/C)\C)C#N)/C)\C

> <NMREDATA_ASSIGNMENT>
Rh23, 2308.00, 23

> <NMREDATA_1D_103Rh>
2308.00, L=Rh23

$$$$

  ACD/LABS03282419222D

 68 64  0  0  0  0  0  0  0  0  2 V2000
    9.3864   -7.4214    0.0000 C    0  0  0  0  0  0  0  0  0  0  0  0
    8.0885   -5.1893    0.0000 N    0  0  0  0  0  0  0  0  0  0  0  0
   12.1513  -11.8077    0.0000 C    0  0  0  0  0  0  0  0  0  0  0  0
   13.3741  -13.6163    0.0000 N    0  0  0  0  0  0  0  0  0  0  0  0
   10.6840   -9.6535    0.0000 Rh   0  7  0  0  0  0  0  0  0  0  0  0
   11.9645   -7.4214    0.0000 Se   0  0  0  0  0  0  0  0  0  0  0  0
   13.5183   -9.1878    0.0000 Se   0  0  0  0  0  0  0  0  0  0  0  0
    8.0885   -9.6535    0.0000 Se   0  0  0  0  0  0  0  0  0  0  0  0
    9.3864  -11.9034    0.0000 Se   0  0  0  0  0  0  0  0  0  0  0  0
   15.7136   -9.1718    0.0000 C    0  0  0  0  0  0  0  0  0  0  0  0
   18.3266   -9.1718    0.0000 N    0  0  0  0  0  0  0  0  0  0  0  0
   10.6840   -5.1893    0.0000 C    0  0  0  0  0  0  0  0  0  0  0  0
    9.3864   -2.9394    0.0000 N    0  0  0  0  0  0  0  0  0  0  0  0
    6.7905   -7.4214    0.0000 C    0  0  0  0  0  0  0  0  0  0  0  0
    5.4926   -5.1893    0.0000 N    0  0  0  0  0  0  0  0  0  0  0  0
    6.7905  -11.9034    0.0000 C    0  0  0  0  0  0  0  0  0  0  0  0
    4.1946  -11.9034    0.0000 N    0  0  0  0  0  0  0  0  0  0  0  0
   25.1258   -7.8839    0.0000 N    0  3  0  0  0  0  0  0  0  0  0  0
   26.2956   -7.8839    0.0000 C    0  0  0  0  0  0  0  0  0  0  0  0
   26.8804   -6.8708    0.0000 C    0  0  0  0  0  0  0  0  0  0  0  0
   28.0502   -6.8708    0.0000 C    0  0  0  0  0  0  0  0  0  0  0  0
   28.6351   -5.8578    0.0000 C    0  0  0  0  0  0  0  0  0  0  0  0
   25.1258   -6.7141    0.0000 C    0  0  0  0  0  0  0  0  0  0  0  0
   26.1388   -6.1292    0.0000 C    0  0  0  0  0  0  0  0  0  0  0  0
   26.1388   -4.9595    0.0000 C    0  0  0  0  0  0  0  0  0  0  0  0
   27.1519   -4.3746    0.0000 C    0  0  0  0  0  0  0  0  0  0  0  0
   25.1258   -9.0536    0.0000 C    0  0  0  0  0  0  0  0  0  0  0  0
   24.1127   -9.6385    0.0000 C    0  0  0  0  0  0  0  0  0  0  0  0
   24.1127  -10.8083    0.0000 C    0  0  0  0  0  0  0  0  0  0  0  0
   23.0997  -11.3931    0.0000 C    0  0  0  0  0  0  0  0  0  0  0  0
   23.9560   -7.8839    0.0000 C    0  0  0  0  0  0  0  0  0  0  0  0
   23.3712   -8.8969    0.0000 C    0  0  0  0  0  0  0  0  0  0  0  0
   22.2014   -8.8969    0.0000 C    0  0  0  0  0  0  0  0  0  0  0  0
   21.6165   -9.9099    0.0000 C    0  0  0  0  0  0  0  0  0  0  0  0
   33.5064   -5.3681    0.0000 N    0  3  0  0  0  0  0  0  0  0  0  0
   34.6762   -5.3681    0.0000 C    0  0  0  0  0  0  0  0  0  0  0  0
   35.2610   -4.3550    0.0000 C    0  0  0  0  0  0  0  0  0  0  0  0
   36.4308   -4.3550    0.0000 C    0  0  0  0  0  0  0  0  0  0  0  0
   37.0157   -3.3420    0.0000 C    0  0  0  0  0  0  0  0  0  0  0  0
   33.5064   -4.1983    0.0000 C    0  0  0  0  0  0  0  0  0  0  0  0
   34.5194   -3.6134    0.0000 C    0  0  0  0  0  0  0  0  0  0  0  0
   34.5194   -2.4437    0.0000 C    0  0  0  0  0  0  0  0  0  0  0  0
   35.5325   -1.8588    0.0000 C    0  0  0  0  0  0  0  0  0  0  0  0
   33.5064   -6.5378    0.0000 C    0  0  0  0  0  0  0  0  0  0  0  0
   32.4934   -7.1227    0.0000 C    0  0  0  0  0  0  0  0  0  0  0  0
   32.4934   -8.2925    0.0000 C    0  0  0  0  0  0  0  0  0  0  0  0
   31.4803   -8.8774    0.0000 C    0  0  0  0  0  0  0  0  0  0  0  0
   32.3366   -5.3681    0.0000 C    0  0  0  0  0  0  0  0  0  0  0  0
   31.7518   -6.3811    0.0000 C    0  0  0  0  0  0  0  0  0  0  0  0
   30.5820   -6.3811    0.0000 C    0  0  0  0  0  0  0  0  0  0  0  0
   29.9971   -7.3942    0.0000 C    0  0  0  0  0  0  0  0  0  0  0  0
   27.0006  -12.4347    0.0000 N    0  3  0  0  0  0  0  0  0  0  0  0
   28.1704  -12.4347    0.0000 C    0  0  0  0  0  0  0  0  0  0  0  0
   28.7553  -11.4217    0.0000 C    0  0  0  0  0  0  0  0  0  0  0  0
   29.9250  -11.4217    0.0000 C    0  0  0  0  0  0  0  0  0  0  0  0
   30.5099  -10.4086    0.0000 C    0  0  0  0  0  0  0  0  0  0  0  0
   27.0006  -11.2649    0.0000 C    0  0  0  0  0  0  0  0  0  0  0  0
   28.0137  -10.6801    0.0000 C    0  0  0  0  0  0  0  0  0  0  0  0
   28.0137   -9.5103    0.0000 C    0  0  0  0  0  0  0  0  0  0  0  0
   29.0267   -8.9254    0.0000 C    0  0  0  0  0  0  0  0  0  0  0  0
   27.0006  -13.6045    0.0000 C    0  0  0  0  0  0  0  0  0  0  0  0
   25.9876  -14.1893    0.0000 C    0  0  0  0  0  0  0  0  0  0  0  0
   25.9876  -15.3591    0.0000 C    0  0  0  0  0  0  0  0  0  0  0  0
   24.9745  -15.9440    0.0000 C    0  0  0  0  0  0  0  0  0  0  0  0
   25.8309  -12.4347    0.0000 C    0  0  0  0  0  0  0  0  0  0  0  0
   25.2460  -13.4477    0.0000 C    0  0  0  0  0  0  0  0  0  0  0  0
   24.0762  -13.4477    0.0000 C    0  0  0  0  0  0  0  0  0  0  0  0
   23.4913  -14.4608    0.0000 C    0  0  0  0  0  0  0  0  0  0  0  0
  1  2  3  0  0  0  0
  3  4  3  0  0  0  0
  3  5  1  0  0  0  0
  1  5  1  0  0  0  0
  5  6  1  0  0  0  0
  5  7  1  0  0  0  0
  5  8  1  0  0  0  0
  5  9  1  0  0  0  0
 10 11  3  0  0  0  0
  7 10  1  0  0  0  0
 12 13  3  0  0  0  0
  6 12  1  0  0  0  0
 14 15  3  0  0  0  0
  8 14  1  0  0  0  0
 16 17  3  0  0  0  0
  9 16  1  0  0  0  0
 18 19  1  0  0  0  0
 19 20  1  0  0  0  0
 20 21  1  0  0  0  0
 21 22  1  0  0  0  0
 18 23  1  0  0  0  0
 23 24  1  0  0  0  0
 24 25  1  0  0  0  0
 25 26  1  0  0  0  0
 18 27  1  0  0  0  0
 27 28  1  0  0  0  0
 28 29  1  0  0  0  0
 29 30  1  0  0  0  0
 18 31  1  0  0  0  0
 31 32  1  0  0  0  0
 32 33  1  0  0  0  0
 33 34  1  0  0  0  0
 35 36  1  0  0  0  0
 36 37  1  0  0  0  0
 37 38  1  0  0  0  0
 38 39  1  0  0  0  0
 35 40  1  0  0  0  0
 40 41  1  0  0  0  0
 41 42  1  0  0  0  0
 42 43  1  0  0  0  0
 35 44  1  0  0  0  0
 44 45  1  0  0  0  0
 45 46  1  0  0  0  0
 46 47  1  0  0  0  0
 35 48  1  0  0  0  0
 48 49  1  0  0  0  0
 49 50  1  0  0  0  0
 50 51  1  0  0  0  0
 52 53  1  0  0  0  0
 53 54  1  0  0  0  0
 54 55  1  0  0  0  0
 55 56  1  0  0  0  0
 52 57  1  0  0  0  0
 57 58  1  0  0  0  0
 58 59  1  0  0  0  0
 59 60  1  0  0  0  0
 52 61  1  0  0  0  0
 61 62  1  0  0  0  0
 62 63  1  0  0  0  0
 63 64  1  0  0  0  0
 52 65  1  0  0  0  0
 65 66  1  0  0  0  0
 66 67  1  0  0  0  0
 67 68  1  0  0  0  0
M  END
> <NMREDATA_VERSION>
1.1

> <NMREDATA_LEVEL>
0

> <NMREDATA_SOLVENT>
CD2Cl2

> <NMREDATA_TEMPERATURE>
243

> <NMREDATA_FORMULA>
C54H111N9RhSe4

> <NMREDATA_SMILES>
N#C[Rh]([Se]C#N)([Se]C#N)([Se]C#N)([Se]C#N)C#N.CCCCN(CCCC)(CCCC)CCCC.CCCCN(CCCC)(CCCC)CCCC.CCCCN(CCCC)(CCCC)CCCC

> <NMREDATA_ASSIGNMENT>
Rh5, 1680.00, 5

> <NMREDATA_1D_103Rh>
1680.00, L=Rh5

$$$$

  ACD/LABS03282419242D

 24 25  0  0  0  0  0  0  0  0  1 V2000
   18.5889   -6.9337    0.0000 C    0  0  0  0  0  0  0  0  0  0  0  0
   18.5885   -5.6028    0.0000 C    0  0  0  0  0  0  0  0  0  0  0  0
   17.4371   -7.5987    0.0000 C    0  0  0  0  0  0  0  0  0  0  0  0
   17.4452   -4.9529    0.0000 C    0  0  0  0  0  0  0  0  0  0  0  0
   16.2927   -6.9283    0.0000 C    0  0  0  0  0  0  0  0  0  0  0  0
   16.2934   -5.6179    0.0000 C    0  0  0  0  0  0  0  0  0  0  0  0
   10.5430   -8.9379    0.0000 C    0  0  0  0  0  0  0  0  0  0  0  0
    9.3912   -9.6029    0.0000 C    0  0  0  0  0  0  0  0  0  0  0  0
   11.6860   -9.5880    0.0000 C    0  0  0  0  0  0  0  0  0  0  0  0
    9.3901  -10.9135    0.0000 C    0  0  0  0  0  0  0  0  0  0  0  0
   11.6944  -10.9143    0.0000 C    0  0  0  0  0  0  0  0  0  0  0  0
   10.5426  -11.5793    0.0000 C    0  0  0  0  0  0  0  0  0  0  0  0
   13.9893   -8.2582    0.0000 Rh   0  0  0  0  0  0  0  0  0  0  0  0
   15.1415   -8.9241    0.0000 Cl   0  0  0  0  0  0  0  0  0  0  0  0
   13.9901   -6.9477    0.0000 Cl   0  0  0  0  0  0  0  0  0  0  0  0
   13.9977   -9.5844    0.0000 H    0  0  0  0  0  0  0  0  0  0  0  0
   15.1409   -7.5933    0.0000 P    0  0  0  0  0  0  0  0  0  0  0  0
   12.8378   -8.9230    0.0000 P    0  0  0  0  0  0  0  0  0  0  0  0
   12.9819   -7.4175    0.0000 C    0  0  0  0  0  0  0  0  0  0  0  0
   11.9575   -6.5652    0.0000 O    0  0  0  0  0  0  0  0  0  0  0  0
   13.3020  -10.1704    0.0000 C    0  0  0  0  0  0  0  0  0  0  0  0
   12.1775   -7.7792    0.0000 C    0  0  0  0  0  0  0  0  0  0  0  0
   14.6860   -6.3620    0.0000 C    0  0  0  0  0  0  0  0  0  0  0  0
   15.9891   -8.6191    0.0000 C    0  0  0  0  0  0  0  0  0  0  0  0
  1  2  1  0  0  0  0
  1  3  2  0  0  0  0
  2  4  2  0  0  0  0
  3  5  1  0  0  0  0
  4  6  1  0  0  0  0
  5  6  2  0  0  0  0
  7  8  1  0  0  0  0
  7  9  2  0  0  0  0
  8 10  2  0  0  0  0
  9 11  1  0  0  0  0
 10 12  1  0  0  0  0
 11 12  2  0  0  0  0
 13 14  1  0  0  0  0
 13 15  1  0  0  0  0
 13 16  1  0  0  0  0
 13 17  1  0  0  0  0
 13 18  1  0  0  0  0
 13 19  1  0  0  0  0
 19 20  3  0  0  0  0
 18 21  1  0  0  0  0
 18 22  1  0  0  0  0
 17 23  1  0  0  0  0
 17 24  1  0  0  0  0
  9 18  1  0  0  0  0
  5 17  1  0  0  0  0
M  END
> <NMREDATA_VERSION>
1.1

> <NMREDATA_LEVEL>
0

> <NMREDATA_SOLVENT>
C6D6

> <NMREDATA_TEMPERATURE>
297

> <NMREDATA_FORMULA>
C17H25Cl2OP2Rh

> <NMREDATA_SMILES>
[O]#C[RhH](P(c1ccccc1)(C)C)(P(c1ccccc1)(C)C)(Cl)Cl

> <NMREDATA_ASSIGNMENT>
Rh13, 239.00, 13

> <NMREDATA_1D_103Rh>
239.00, L=Rh13

$$$$

  ACD/LABS03282419242D

 24 25  0  0  0  0  0  0  0  0  1 V2000
   18.5889   -6.9337    0.0000 C    0  0  0  0  0  0  0  0  0  0  0  0
   18.5885   -5.6028    0.0000 C    0  0  0  0  0  0  0  0  0  0  0  0
   17.4371   -7.5987    0.0000 C    0  0  0  0  0  0  0  0  0  0  0  0
   17.4452   -4.9529    0.0000 C    0  0  0  0  0  0  0  0  0  0  0  0
   16.2927   -6.9283    0.0000 C    0  0  0  0  0  0  0  0  0  0  0  0
   16.2934   -5.6179    0.0000 C    0  0  0  0  0  0  0  0  0  0  0  0
   10.5430   -8.9379    0.0000 C    0  0  0  0  0  0  0  0  0  0  0  0
    9.3912   -9.6029    0.0000 C    0  0  0  0  0  0  0  0  0  0  0  0
   11.6860   -9.5880    0.0000 C    0  0  0  0  0  0  0  0  0  0  0  0
    9.3901  -10.9135    0.0000 C    0  0  0  0  0  0  0  0  0  0  0  0
   11.6944  -10.9143    0.0000 C    0  0  0  0  0  0  0  0  0  0  0  0
   10.5426  -11.5793    0.0000 C    0  0  0  0  0  0  0  0  0  0  0  0
   13.9893   -8.2582    0.0000 Rh   0  0  0  0  0  0  0  0  0  0  0  0
   15.1415   -8.9241    0.0000 Cl   0  0  0  0  0  0  0  0  0  0  0  0
   13.9901   -6.9477    0.0000 Cl   0  0  0  0  0  0  0  0  0  0  0  0
   13.9977   -9.5844    0.0000 Cl   0  0  0  0  0  0  0  0  0  0  0  0
   15.1409   -7.5933    0.0000 P    0  0  0  0  0  0  0  0  0  0  0  0
   12.8378   -8.9230    0.0000 P    0  0  0  0  0  0  0  0  0  0  0  0
   12.9819   -7.4175    0.0000 C    0  0  0  0  0  0  0  0  0  0  0  0
   11.9575   -6.5652    0.0000 O    0  0  0  0  0  0  0  0  0  0  0  0
   13.3020  -10.1704    0.0000 C    0  0  0  0  0  0  0  0  0  0  0  0
   12.1775   -7.7792    0.0000 C    0  0  0  0  0  0  0  0  0  0  0  0
   14.6860   -6.3620    0.0000 C    0  0  0  0  0  0  0  0  0  0  0  0
   15.9891   -8.6191    0.0000 C    0  0  0  0  0  0  0  0  0  0  0  0
  1  2  1  0  0  0  0
  1  3  2  0  0  0  0
  2  4  2  0  0  0  0
  3  5  1  0  0  0  0
  4  6  1  0  0  0  0
  5  6  2  0  0  0  0
  7  8  1  0  0  0  0
  7  9  2  0  0  0  0
  8 10  2  0  0  0  0
  9 11  1  0  0  0  0
 10 12  1  0  0  0  0
 11 12  2  0  0  0  0
 13 14  1  0  0  0  0
 13 15  1  0  0  0  0
 13 16  1  0  0  0  0
 13 17  1  0  0  0  0
 13 18  1  0  0  0  0
 13 19  1  0  0  0  0
 19 20  3  0  0  0  0
 18 21  1  0  0  0  0
 18 22  1  0  0  0  0
 17 23  1  0  0  0  0
 17 24  1  0  0  0  0
  9 18  1  0  0  0  0
  5 17  1  0  0  0  0
M  END
> <NMREDATA_VERSION>
1.1

> <NMREDATA_LEVEL>
0

> <NMREDATA_SOLVENT>
C6D6

> <NMREDATA_TEMPERATURE>
297

> <NMREDATA_FORMULA>
C17H24Cl3OP2Rh

> <NMREDATA_SMILES>
[O]#C[Rh](P(c1ccccc1)(C)C)(P(c1ccccc1)(C)C)(Cl)(Cl)Cl

> <NMREDATA_ASSIGNMENT>
Rh13, 1588.00, 13

> <NMREDATA_1D_103Rh>
1588.00, L=Rh13

$$$$

  ACD/LABS03282419252D

 14 13  0  0  0  0  0  0  0  0  1 V2000
   13.9893   -8.2582    0.0000 Rh   0  0  0  0  0  0  0  0  0  0  0  0
   15.1415   -8.9241    0.0000 Cl   0  0  0  0  0  0  0  0  0  0  0  0
   13.9901   -6.9477    0.0000 Cl   0  0  0  0  0  0  0  0  0  0  0  0
   13.9977   -9.5844    0.0000 Cl   0  0  0  0  0  0  0  0  0  0  0  0
   15.1409   -7.5933    0.0000 P    0  0  0  0  0  0  0  0  0  0  0  0
   12.8378   -8.9230    0.0000 P    0  0  0  0  0  0  0  0  0  0  0  0
   12.9819   -7.4175    0.0000 C    0  0  0  0  0  0  0  0  0  0  0  0
   11.9575   -6.5652    0.0000 O    0  0  0  0  0  0  0  0  0  0  0  0
   13.3020  -10.1704    0.0000 C    0  0  0  0  0  0  0  0  0  0  0  0
   12.1775   -7.7792    0.0000 C    0  0  0  0  0  0  0  0  0  0  0  0
   14.6860   -6.3620    0.0000 C    0  0  0  0  0  0  0  0  0  0  0  0
   15.9891   -8.6191    0.0000 C    0  0  0  0  0  0  0  0  0  0  0  0
   11.6816   -9.5183    0.0000 C    0  0  0  0  0  0  0  0  0  0  0  0
   16.2805   -6.8102    0.0000 C    0  0  0  0  0  0  0  0  0  0  0  0
  1  2  1  0  0  0  0
  1  3  1  0  0  0  0
  1  4  1  0  0  0  0
  1  5  1  0  0  0  0
  1  6  1  0  0  0  0
  1  7  1  0  0  0  0
  7  8  3  0  0  0  0
  6  9  1  0  0  0  0
  6 10  1  0  0  0  0
  5 11  1  0  0  0  0
  5 12  1  0  0  0  0
  6 13  1  0  0  0  0
  5 14  1  0  0  0  0
M  END
> <NMREDATA_VERSION>
1.1

> <NMREDATA_LEVEL>
0

> <NMREDATA_SOLVENT>
C6D6

> <NMREDATA_FORMULA>
C7H20Cl3OP2Rh

> <NMREDATA_SMILES>
[O]#C[Rh](P(C)(C)C)(P(C)(C)C)(Cl)(Cl)Cl

> <NMREDATA_ASSIGNMENT>
Rh1, 1477.00, 1

> <NMREDATA_1D_103Rh>
1477.00, L=Rh1

$$$$

  ACD/LABS03282419262D

 24 25  0  0  0  0  0  0  0  0  1 V2000
   13.9893   -8.2582    0.0000 Rh   0  0  0  0  0  0  0  0  0  0  0  0
   15.1415   -8.9241    0.0000 Br   0  0  0  0  0  0  0  0  0  0  0  0
   13.9901   -6.9477    0.0000 Br   0  0  0  0  0  0  0  0  0  0  0  0
   13.9977   -9.5844    0.0000 Br   0  0  0  0  0  0  0  0  0  0  0  0
   15.1409   -7.5933    0.0000 P    0  0  0  0  0  0  0  0  0  0  0  0
   12.8378   -8.9230    0.0000 P    0  0  0  0  0  0  0  0  0  0  0  0
   12.9819   -7.4175    0.0000 C    0  0  0  0  0  0  0  0  0  0  0  0
   11.9575   -6.5652    0.0000 O    0  0  0  0  0  0  0  0  0  0  0  0
   13.3020  -10.1704    0.0000 C    0  0  0  0  0  0  0  0  0  0  0  0
   12.1775   -7.7792    0.0000 C    0  0  0  0  0  0  0  0  0  0  0  0
   14.6860   -6.3620    0.0000 C    0  0  0  0  0  0  0  0  0  0  0  0
   15.9891   -8.6191    0.0000 C    0  0  0  0  0  0  0  0  0  0  0  0
   16.2943   -6.9292    0.0000 C    0  0  0  0  0  0  0  0  0  0  0  0
   16.2959   -5.5982    0.0000 C    0  0  0  0  0  0  0  0  0  0  0  0
   17.4463   -7.5961    0.0000 C    0  0  0  0  0  0  0  0  0  0  0  0
   17.4495   -4.9341    0.0000 C    0  0  0  0  0  0  0  0  0  0  0  0
   18.5998   -6.9320    0.0000 C    0  0  0  0  0  0  0  0  0  0  0  0
   18.6014   -5.6010    0.0000 C    0  0  0  0  0  0  0  0  0  0  0  0
   11.6335   -9.4898    0.0000 C    0  0  0  0  0  0  0  0  0  0  0  0
   11.5223  -10.8162    0.0000 C    0  0  0  0  0  0  0  0  0  0  0  0
   10.5404   -8.7303    0.0000 C    0  0  0  0  0  0  0  0  0  0  0  0
   10.3179  -11.3830    0.0000 C    0  0  0  0  0  0  0  0  0  0  0  0
    9.3362   -9.2971    0.0000 C    0  0  0  0  0  0  0  0  0  0  0  0
    9.2249  -10.6234    0.0000 C    0  0  0  0  0  0  0  0  0  0  0  0
  1  2  1  0  0  0  0
  1  3  1  0  0  0  0
  1  4  1  0  0  0  0
  1  5  1  0  0  0  0
  1  6  1  0  0  0  0
  1  7  1  0  0  0  0
  7  8  3  0  0  0  0
  6  9  1  0  0  0  0
  6 10  1  0  0  0  0
  5 11  1  0  0  0  0
  5 12  1  0  0  0  0
 13 14  1  0  0  0  0
 13 15  2  0  0  0  0
 14 16  2  0  0  0  0
 15 17  1  0  0  0  0
 16 18  1  0  0  0  0
 17 18  2  0  0  0  0
  5 13  1  0  0  0  0
 19 20  1  0  0  0  0
 19 21  2  0  0  0  0
 20 22  2  0  0  0  0
 21 23  1  0  0  0  0
 22 24  1  0  0  0  0
 23 24  2  0  0  0  0
  6 19  1  0  0  0  0
M  END
> <NMREDATA_VERSION>
1.1

> <NMREDATA_LEVEL>
0

> <NMREDATA_SOLVENT>
C6D6

> <NMREDATA_TEMPERATURE>
297

> <NMREDATA_FORMULA>
C17H24Br3OP2Rh

> <NMREDATA_SMILES>
[O]#C[Rh](P(c1ccccc1)(C)C)(P(c1ccccc1)(C)C)(Br)(Br)Br

> <NMREDATA_ASSIGNMENT>
Rh1, 1075.00, 1

> <NMREDATA_1D_103Rh>
1075.00, L=Rh1

$$$$

  ACD/LABS03282419262D

 14 13  0  0  0  0  0  0  0  0  1 V2000
   13.9893   -8.2582    0.0000 Rh   0  0  0  0  0  0  0  0  0  0  0  0
   15.1415   -8.9241    0.0000 Br   0  0  0  0  0  0  0  0  0  0  0  0
   13.9901   -6.9477    0.0000 Br   0  0  0  0  0  0  0  0  0  0  0  0
   13.9977   -9.5844    0.0000 Br   0  0  0  0  0  0  0  0  0  0  0  0
   15.1409   -7.5933    0.0000 P    0  0  0  0  0  0  0  0  0  0  0  0
   12.8378   -8.9230    0.0000 P    0  0  0  0  0  0  0  0  0  0  0  0
   12.9819   -7.4175    0.0000 C    0  0  0  0  0  0  0  0  0  0  0  0
   11.9575   -6.5652    0.0000 O    0  0  0  0  0  0  0  0  0  0  0  0
   13.3020  -10.1704    0.0000 C    0  0  0  0  0  0  0  0  0  0  0  0
   12.1775   -7.7792    0.0000 C    0  0  0  0  0  0  0  0  0  0  0  0
   14.6860   -6.3620    0.0000 C    0  0  0  0  0  0  0  0  0  0  0  0
   15.9891   -8.6191    0.0000 C    0  0  0  0  0  0  0  0  0  0  0  0
   11.6816   -9.5183    0.0000 C    0  0  0  0  0  0  0  0  0  0  0  0
   16.2805   -6.8102    0.0000 C    0  0  0  0  0  0  0  0  0  0  0  0
  1  2  1  0  0  0  0
  1  3  1  0  0  0  0
  1  4  1  0  0  0  0
  1  5  1  0  0  0  0
  1  6  1  0  0  0  0
  1  7  1  0  0  0  0
  7  8  3  0  0  0  0
  6  9  1  0  0  0  0
  6 10  1  0  0  0  0
  5 11  1  0  0  0  0
  5 12  1  0  0  0  0
  6 13  1  0  0  0  0
  5 14  1  0  0  0  0
M  END
> <NMREDATA_VERSION>
1.1

> <NMREDATA_LEVEL>
0

> <NMREDATA_SOLVENT>
C6D6

> <NMREDATA_FORMULA>
C7H20Br3OP2Rh

> <NMREDATA_SMILES>
[O]#C[Rh](P(C)(C)C)(P(C)(C)C)(Br)(Br)Br

> <NMREDATA_ASSIGNMENT>
Rh1, 983.00, 1

> <NMREDATA_1D_103Rh>
983.00, L=Rh1

$$$$

  ACD/LABS03282419282D

 20 18  0  0  0  0  0  0  0  0  2 V2000
   12.7017   -7.9471    0.0000 Rh   0  0  0  0  0  0  0  0  0  0  0  0
   14.1720   -7.0982    0.0000 H    0  0  0  0  0  0  0  0  0  0  0  0
   11.2408   -7.0916    0.0000 H    0  0  0  0  0  0  0  0  0  0  0  0
   12.7011   -6.2485    0.0000 P    0  0  0  0  0  0  0  0  0  0  0  0
   14.1667   -8.7870    0.0000 P    0  0  0  0  0  0  0  0  0  0  0  0
   11.2414   -8.7902    0.0000 P    0  0  0  0  0  0  0  0  0  0  0  0
   12.6999  -11.6335    0.0000 P    0  0  0  0  0  0  0  0  0  0  0  0
   11.0307   -5.9584    0.0000 C    0  0  0  0  0  0  0  0  0  0  0  0
   14.3774   -5.9603    0.0000 C    0  0  0  0  0  0  0  0  0  0  0  0
   12.7007   -4.5499    0.0000 C    0  0  0  0  0  0  0  0  0  0  0  0
   15.2544   -7.4794    0.0000 C    0  0  0  0  0  0  0  0  0  0  0  0
   13.5828  -10.3789    0.0000 C    0  0  0  0  0  0  0  0  0  0  0  0
   15.6377   -9.6369    0.0000 C    0  0  0  0  0  0  0  0  0  0  0  0
   10.1489   -7.4868    0.0000 C    0  0  0  0  0  0  0  0  0  0  0  0
   11.8182  -10.3781    0.0000 C    0  0  0  0  0  0  0  0  0  0  0  0
    9.7711   -9.6391    0.0000 C    0  0  0  0  0  0  0  0  0  0  0  0
   14.3886  -11.6386    0.0000 C    0  0  0  0  0  0  0  0  0  0  0  0
   11.0237  -11.9217    0.0000 C    0  0  0  0  0  0  0  0  0  0  0  0
   12.7003  -13.3322    0.0000 C    0  0  0  0  0  0  0  0  0  0  0  0
   21.1678   -8.7331    0.0000 Cl   0  5  0  0  0  0  0  0  0  0  0  0
  1  2  1  0  0  0  0
  1  3  1  0  0  0  0
  1  4  1  0  0  0  0
  1  5  1  0  0  0  0
  1  6  1  0  0  0  0
  1  7  1  0  0  0  0
  4  8  1  0  0  0  0
  4  9  1  0  0  0  0
  4 10  1  0  0  0  0
  5 11  1  0  0  0  0
  5 12  1  0  0  0  0
  5 13  1  0  0  0  0
  6 14  1  0  0  0  0
  6 15  1  0  0  0  0
  6 16  1  0  0  0  0
  7 17  1  0  0  0  0
  7 18  1  0  0  0  0
  7 19  1  0  0  0  0
M  END
> <NMREDATA_VERSION>
1.1

> <NMREDATA_LEVEL>
0

> <NMREDATA_SOLVENT>
CD2Cl2

> <NMREDATA_TEMPERATURE>
312

> <NMREDATA_FORMULA>
C12H43ClP4Rh

> <NMREDATA_SMILES>
CP([RhH2](P(C)(C)C)(P(C)(C)C)P(C)(C)C)(C)C.Cl

> <NMREDATA_ASSIGNMENT>
Rh1, -1007.00, 1

> <NMREDATA_1D_103Rh>
-1007.00, L=Rh1

$$$$

  ACD/LABS03282419332D

 63 71  0  0  0  0  0  0  0  0  2 V2000
   18.4557   -8.6556    0.0000 C    0  0  0  0  0  0  0  0  0  0  0  0
   17.6045   -9.6750    0.0000 C    0  0  0  0  0  0  0  0  0  0  0  0
   19.7679   -8.8950    0.0000 C    0  0  0  0  0  0  0  0  0  0  0  0
   18.0481  -10.9253    0.0000 C    0  0  0  0  0  0  0  0  0  0  0  0
   20.2199  -10.1449    0.0000 C    0  0  0  0  0  0  0  0  0  0  0  0
   19.3603  -11.1647    0.0000 C    0  0  0  0  0  0  0  0  0  0  0  0
   17.1173  -15.4554    0.0000 C    0  0  0  0  0  0  0  0  0  0  0  0
   15.8051  -15.6770    0.0000 C    0  0  0  0  0  0  0  0  0  0  0  0
   17.5782  -14.2144    0.0000 C    0  0  0  0  0  0  0  0  0  0  0  0
   14.9632  -14.6576    0.0000 C    0  0  0  0  0  0  0  0  0  0  0  0
   16.7270  -13.1857    0.0000 C    0  0  0  0  0  0  0  0  0  0  0  0
   15.4149  -13.4077    0.0000 C    0  0  0  0  0  0  0  0  0  0  0  0
   20.6458  -12.6273    0.0000 C    0  0  0  0  0  0  0  0  0  0  0  0
   20.6369  -13.9573    0.0000 C    0  0  0  0  0  0  0  0  0  0  0  0
   19.4933  -11.9536    0.0000 C    0  0  0  0  0  0  0  0  0  0  0  0
   19.4844  -14.6131    0.0000 C    0  0  0  0  0  0  0  0  0  0  0  0
   18.3404  -12.6095    0.0000 C    0  0  0  0  0  0  0  0  0  0  0  0
   18.3315  -13.9395    0.0000 C    0  0  0  0  0  0  0  0  0  0  0  0
   15.9203   -1.6609    0.0000 C    0  0  0  0  0  0  0  0  0  0  0  0
   17.2236   -1.4393    0.0000 C    0  0  0  0  0  0  0  0  0  0  0  0
   15.4594   -2.9108    0.0000 C    0  0  0  0  0  0  0  0  0  0  0  0
   18.0833   -2.4587    0.0000 C    0  0  0  0  0  0  0  0  0  0  0  0
   16.3101   -3.9306    0.0000 C    0  0  0  0  0  0  0  0  0  0  0  0
   17.6223   -3.7086    0.0000 C    0  0  0  0  0  0  0  0  0  0  0  0
   17.8354   -6.7321    0.0000 C    0  0  0  0  0  0  0  0  0  0  0  0
   19.1471   -6.9626    0.0000 C    0  0  0  0  0  0  0  0  0  0  0  0
   17.3829   -5.4818    0.0000 C    0  0  0  0  0  0  0  0  0  0  0  0
   20.0072   -5.9516    0.0000 C    0  0  0  0  0  0  0  0  0  0  0  0
   18.2430   -4.4624    0.0000 C    0  0  0  0  0  0  0  0  0  0  0  0
   19.5552   -4.6928    0.0000 C    0  0  0  0  0  0  0  0  0  0  0  0
   14.8391   -3.4519    0.0000 C    0  0  0  0  0  0  0  0  0  0  0  0
   13.6867   -2.7867    0.0000 C    0  0  0  0  0  0  0  0  0  0  0  0
   14.8391   -4.7814    0.0000 C    0  0  0  0  0  0  0  0  0  0  0  0
   12.5338   -3.4519    0.0000 C    0  0  0  0  0  0  0  0  0  0  0  0
   13.6867   -5.4466    0.0000 C    0  0  0  0  0  0  0  0  0  0  0  0
   12.5338   -4.7814    0.0000 C    0  0  0  0  0  0  0  0  0  0  0  0
   12.3033   -9.3471    0.0000 C    0  0  0  0  0  0  0  0  0  0  0  0
   12.0817   -8.0442    0.0000 C    0  0  0  0  0  0  0  0  0  0  0  0
   11.2839  -10.1894    0.0000 C    0  0  0  0  0  0  0  0  0  0  0  0
   10.8403   -7.5833    0.0000 C    0  0  0  0  0  0  0  0  0  0  0  0
   10.0336   -9.7284    0.0000 C    0  0  0  0  0  0  0  0  0  0  0  0
    9.8120   -8.4256    0.0000 C    0  0  0  0  0  0  0  0  0  0  0  0
   13.1634   -7.5477    0.0000 C    0  0  0  0  0  0  0  0  0  0  0  0
   14.0146   -8.5582    0.0000 C    0  0  0  0  0  0  0  0  0  0  0  0
   13.6333   -6.2978    0.0000 C    0  0  0  0  0  0  0  0  0  0  0  0
   15.3174   -8.3455    0.0000 C    0  0  0  0  0  0  0  0  0  0  0  0
   14.9454   -6.0758    0.0000 C    0  0  0  0  0  0  0  0  0  0  0  0
   15.7784   -7.1045    0.0000 C    0  0  0  0  0  0  0  0  0  0  0  0
   12.9240  -14.7996    0.0000 C    0  0  0  0  0  0  0  0  0  0  0  0
   13.3850  -13.5492    0.0000 C    0  0  0  0  0  0  0  0  0  0  0  0
   11.6118  -15.0211    0.0000 C    0  0  0  0  0  0  0  0  0  0  0  0
   12.5427  -12.5209    0.0000 C    0  0  0  0  0  0  0  0  0  0  0  0
   10.7695  -13.9929    0.0000 C    0  0  0  0  0  0  0  0  0  0  0  0
   11.2305  -12.7425    0.0000 C    0  0  0  0  0  0  0  0  0  0  0  0
   16.0445  -11.2711    0.0000 Rh   0  0  0  0  0  0  0  0  0  0  0  0
   14.9009  -11.9269    0.0000 N    0  0  0  0  0  0  0  0  0  0  0  0
   13.8815  -11.0668    0.0000 N    0  3  0  0  0  0  0  0  0  0  0  0
   12.7376  -10.4021    0.0000 N    0  5  0  0  0  0  0  0  0  0  0  0
   17.1969  -10.6148    0.0000 H    0  0  0  0  0  0  0  0  0  0  0  0
   16.0356  -12.6006    0.0000 H    0  0  0  0  0  0  0  0  0  0  0  0
   17.1969  -11.9447    0.0000 P    0  0  0  0  0  0  0  0  0  0  0  0
   16.0796   -5.2424    0.0000 P    0  0  0  0  0  0  0  0  0  0  0  0
   13.5536   -9.8081    0.0000 P    0  0  0  0  0  0  0  0  0  0  0  0
  1  2  1  0  0  0  0
  1  3  2  0  0  0  0
  2  4  2  0  0  0  0
  3  5  1  0  0  0  0
  4  6  1  0  0  0  0
  5  6  2  0  0  0  0
  7  8  1  0  0  0  0
  7  9  2  0  0  0  0
  8 10  2  0  0  0  0
  9 11  1  0  0  0  0
 10 12  1  0  0  0  0
 11 12  2  0  0  0  0
 13 14  1  0  0  0  0
 13 15  2  0  0  0  0
 14 16  2  0  0  0  0
 15 17  1  0  0  0  0
 16 18  1  0  0  0  0
 17 18  2  0  0  0  0
 19 20  1  0  0  0  0
 19 21  2  0  0  0  0
 20 22  2  0  0  0  0
 21 23  1  0  0  0  0
 22 24  1  0  0  0  0
 23 24  2  0  0  0  0
 25 26  1  0  0  0  0
 25 27  2  0  0  0  0
 26 28  2  0  0  0  0
 27 29  1  0  0  0  0
 28 30  1  0  0  0  0
 29 30  2  0  0  0  0
 31 32  1  0  0  0  0
 31 33  2  0  0  0  0
 32 34  2  0  0  0  0
 33 35  1  0  0  0  0
 34 36  1  0  0  0  0
 35 36  2  0  0  0  0
 37 38  1  0  0  0  0
 37 39  2  0  0  0  0
 38 40  2  0  0  0  0
 39 41  1  0  0  0  0
 40 42  1  0  0  0  0
 41 42  2  0  0  0  0
 43 44  1  0  0  0  0
 43 45  2  0  0  0  0
 44 46  2  0  0  0  0
 45 47  1  0  0  0  0
 46 48  1  0  0  0  0
 47 48  2  0  0  0  0
 49 50  1  0  0  0  0
 49 51  2  0  0  0  0
 50 52  2  0  0  0  0
 51 53  1  0  0  0  0
 52 54  1  0  0  0  0
 53 54  2  0  0  0  0
 56 57  2  0  0  0  0
 57 58  2  0  0  0  0
 55 56  1  0  0  0  0
 55 59  1  0  0  0  0
 55 60  1  0  0  0  0
 55 61  1  0  0  0  0
 55 62  1  0  0  0  0
 55 63  1  0  0  0  0
 52 63  1  0  0  0  0
 44 63  1  0  0  0  0
 37 63  1  0  0  0  0
 33 62  1  0  0  0  0
 27 62  1  0  0  0  0
 23 62  1  0  0  0  0
 17 61  1  0  0  0  0
 11 61  1  0  0  0  0
  4 61  1  0  0  0  0
M  END
> <NMREDATA_VERSION>
1.1

> <NMREDATA_LEVEL>
0

> <NMREDATA_SOLVENT>
DCCl3

> <NMREDATA_TEMPERATURE>
247

> <NMREDATA_FORMULA>
C54H52N3P3Rh

> <NMREDATA_SMILES>
N=N=N[RhH2](P(c1ccccc1)(c1ccccc1)c1ccccc1)(P(c1ccccc1)(c1ccccc1)c1ccccc1)P(c1ccccc1)(c1ccccc1)c1ccccc1

> <NMREDATA_ASSIGNMENT>
Rh55, 119.00, 55

> <NMREDATA_1D_103Rh>
119.00, L=Rh55

$$$$

  ACD/LABS03282419333D

 63 71  0  0  0  0  0  0  0  0  1 V2000
   18.4557   -8.6556    0.0000 C    0  0  0  0  0  0  0  0  0  0  0  0
   17.6045   -9.6750    0.0000 C    0  0  0  0  0  0  0  0  0  0  0  0
   19.7679   -8.8950    0.0000 C    0  0  0  0  0  0  0  0  0  0  0  0
   18.0481  -10.9253    0.0000 C    0  0  0  0  0  0  0  0  0  0  0  0
   20.2199  -10.1449    0.0000 C    0  0  0  0  0  0  0  0  0  0  0  0
   19.3603  -11.1647    0.0000 C    0  0  0  0  0  0  0  0  0  0  0  0
   17.1173  -15.4554    0.0000 C    0  0  0  0  0  0  0  0  0  0  0  0
   15.8051  -15.6770    0.0000 C    0  0  0  0  0  0  0  0  0  0  0  0
   17.5782  -14.2144    0.0000 C    0  0  0  0  0  0  0  0  0  0  0  0
   14.9632  -14.6576    0.0000 C    0  0  0  0  0  0  0  0  0  0  0  0
   16.7270  -13.1857    0.0000 C    0  0  0  0  0  0  0  0  0  0  0  0
   15.4149  -13.4077    0.0000 C    0  0  0  0  0  0  0  0  0  0  0  0
   20.6458  -12.6273    0.0000 C    0  0  0  0  0  0  0  0  0  0  0  0
   20.6369  -13.9573    0.0000 C    0  0  0  0  0  0  0  0  0  0  0  0
   19.4933  -11.9536    0.0000 C    0  0  0  0  0  0  0  0  0  0  0  0
   19.4844  -14.6131    0.0000 C    0  0  0  0  0  0  0  0  0  0  0  0
   18.3404  -12.6095    0.0000 C    0  0  0  0  0  0  0  0  0  0  0  0
   18.3315  -13.9395    0.0000 C    0  0  0  0  0  0  0  0  0  0  0  0
   15.9203   -1.6609    0.0000 C    0  0  0  0  0  0  0  0  0  0  0  0
   17.2236   -1.4393    0.0000 C    0  0  0  0  0  0  0  0  0  0  0  0
   15.4594   -2.9108    0.0000 C    0  0  0  0  0  0  0  0  0  0  0  0
   18.0833   -2.4587    0.0000 C    0  0  0  0  0  0  0  0  0  0  0  0
   16.3101   -3.9306    0.0000 C    0  0  0  0  0  0  0  0  0  0  0  0
   17.6223   -3.7086    0.0000 C    0  0  0  0  0  0  0  0  0  0  0  0
   17.8354   -6.7321    0.0000 C    0  0  0  0  0  0  0  0  0  0  0  0
   19.1471   -6.9626    0.0000 C    0  0  0  0  0  0  0  0  0  0  0  0
   17.3829   -5.4818    0.0000 C    0  0  0  0  0  0  0  0  0  0  0  0
   20.0072   -5.9516    0.0000 C    0  0  0  0  0  0  0  0  0  0  0  0
   18.2430   -4.4624    0.0000 C    0  0  0  0  0  0  0  0  0  0  0  0
   19.5552   -4.6928    0.0000 C    0  0  0  0  0  0  0  0  0  0  0  0
   14.8391   -3.4519    0.0000 C    0  0  0  0  0  0  0  0  0  0  0  0
   13.6867   -2.7867    0.0000 C    0  0  0  0  0  0  0  0  0  0  0  0
   14.8391   -4.7814    0.0000 C    0  0  0  0  0  0  0  0  0  0  0  0
   12.5338   -3.4519    0.0000 C    0  0  0  0  0  0  0  0  0  0  0  0
   13.6867   -5.4466    0.0000 C    0  0  0  0  0  0  0  0  0  0  0  0
   12.5338   -4.7814    0.0000 C    0  0  0  0  0  0  0  0  0  0  0  0
   12.3033   -9.3471    0.0000 C    0  0  0  0  0  0  0  0  0  0  0  0
   12.0817   -8.0442    0.0000 C    0  0  0  0  0  0  0  0  0  0  0  0
   11.2839  -10.1894    0.0000 C    0  0  0  0  0  0  0  0  0  0  0  0
   10.8403   -7.5833    0.0000 C    0  0  0  0  0  0  0  0  0  0  0  0
   10.0336   -9.7284    0.0000 C    0  0  0  0  0  0  0  0  0  0  0  0
    9.8120   -8.4256    0.0000 C    0  0  0  0  0  0  0  0  0  0  0  0
   13.1634   -7.5477    0.0000 C    0  0  0  0  0  0  0  0  0  0  0  0
   14.0146   -8.5582    0.0000 C    0  0  0  0  0  0  0  0  0  0  0  0
   13.6333   -6.2978    0.0000 C    0  0  0  0  0  0  0  0  0  0  0  0
   15.3174   -8.3455    0.0000 C    0  0  0  0  0  0  0  0  0  0  0  0
   14.9454   -6.0758    0.0000 C    0  0  0  0  0  0  0  0  0  0  0  0
   15.7784   -7.1045    0.0000 C    0  0  0  0  0  0  0  0  0  0  0  0
   12.9240  -14.7996    0.0000 C    0  0  0  0  0  0  0  0  0  0  0  0
   13.3850  -13.5492    0.0000 C    0  0  0  0  0  0  0  0  0  0  0  0
   11.6118  -15.0211    0.0000 C    0  0  0  0  0  0  0  0  0  0  0  0
   12.5427  -12.5209    0.0000 C    0  0  0  0  0  0  0  0  0  0  0  0
   10.7695  -13.9929    0.0000 C    0  0  0  0  0  0  0  0  0  0  0  0
   11.2305  -12.7425    0.0000 C    0  0  0  0  0  0  0  0  0  0  0  0
   16.0445  -11.2711    0.0000 Rh   0  0  0  0  0  0  0  0  0  0  0  0
   17.1969  -10.6148    0.0000 H    0  0  0  0  0  0  0  0  0  0  0  0
   16.0356  -12.6006    0.0000 H    0  0  0  0  0  0  0  0  0  0  0  0
   17.1969  -11.9447    0.0000 P    0  0  0  0  0  0  0  0  0  0  0  0
   16.0796   -5.2424    0.0000 P    0  0  0  0  0  0  0  0  0  0  0  0
   13.5536   -9.8081    0.0000 P    0  0  0  0  0  0  0  0  0  0  0  0
   14.8880  -11.9279    0.0000 N    0  0  0  0  0  0  0  0  0  0  0  0
   13.7409  -11.2547    0.0000 C    0  0  0  0  0  0  0  0  0  0  0  0
   12.5938  -10.5816    0.0000 O    0  0  0  0  0  0  0  0  0  0  0  0
  1  2  1  0  0  0  0
  1  3  2  0  0  0  0
  2  4  2  0  0  0  0
  3  5  1  0  0  0  0
  4  6  1  0  0  0  0
  5  6  2  0  0  0  0
  7  8  1  0  0  0  0
  7  9  2  0  0  0  0
  8 10  2  0  0  0  0
  9 11  1  0  0  0  0
 10 12  1  0  0  0  0
 11 12  2  0  0  0  0
 13 14  1  0  0  0  0
 13 15  2  0  0  0  0
 14 16  2  0  0  0  0
 15 17  1  0  0  0  0
 16 18  1  0  0  0  0
 17 18  2  0  0  0  0
 19 20  1  0  0  0  0
 19 21  2  0  0  0  0
 20 22  2  0  0  0  0
 21 23  1  0  0  0  0
 22 24  1  0  0  0  0
 23 24  2  0  0  0  0
 25 26  1  0  0  0  0
 25 27  2  0  0  0  0
 26 28  2  0  0  0  0
 27 29  1  0  0  0  0
 28 30  1  0  0  0  0
 29 30  2  0  0  0  0
 31 32  1  0  0  0  0
 31 33  2  0  0  0  0
 32 34  2  0  0  0  0
 33 35  1  0  0  0  0
 34 36  1  0  0  0  0
 35 36  2  0  0  0  0
 37 38  1  0  0  0  0
 37 39  2  0  0  0  0
 38 40  2  0  0  0  0
 39 41  1  0  0  0  0
 40 42  1  0  0  0  0
 41 42  2  0  0  0  0
 43 44  1  0  0  0  0
 43 45  2  0  0  0  0
 44 46  2  0  0  0  0
 45 47  1  0  0  0  0
 46 48  1  0  0  0  0
 47 48  2  0  0  0  0
 49 50  1  0  0  0  0
 49 51  2  0  0  0  0
 50 52  2  0  0  0  0
 51 53  1  0  0  0  0
 52 54  1  0  0  0  0
 53 54  2  0  0  0  0
 55 56  1  0  0  0  0
 55 57  1  0  0  0  0
 55 58  1  0  0  0  0
 55 59  1  0  0  0  0
 55 60  1  0  0  0  0
 52 60  1  0  0  0  0
 44 60  1  0  0  0  0
 37 60  1  0  0  0  0
 33 59  1  0  0  0  0
 27 59  1  0  0  0  0
 23 59  1  0  0  0  0
 17 58  1  0  0  0  0
 11 58  1  0  0  0  0
  4 58  1  0  0  0  0
 61 62  2  0  0  0  0
 62 63  2  0  0  0  0
 55 61  1  0  0  0  0
M  END
> <NMREDATA_VERSION>
1.1

> <NMREDATA_LEVEL>
0

> <NMREDATA_SOLVENT>
DCCl3

> <NMREDATA_TEMPERATURE>
247

> <NMREDATA_FORMULA>
C55H50NOP3Rh

> <NMREDATA_SMILES>
O=C=N[RhH2](P(c1ccccc1)(c1ccccc1)c1ccccc1)(P(c1ccccc1)(c1ccccc1)c1ccccc1)P(c1ccccc1)(c1ccccc1)c1ccccc1

> <NMREDATA_ASSIGNMENT>
Rh55, 46.00, 55

> <NMREDATA_1D_103Rh>
46.00, L=Rh55

$$$$

  ACD/LABS03282419343D

 63 71  0  0  0  0  0  0  0  0  1 V2000
   18.4557   -8.6556    0.0000 C    0  0  0  0  0  0  0  0  0  0  0  0
   17.6045   -9.6750    0.0000 C    0  0  0  0  0  0  0  0  0  0  0  0
   19.7679   -8.8950    0.0000 C    0  0  0  0  0  0  0  0  0  0  0  0
   18.0481  -10.9253    0.0000 C    0  0  0  0  0  0  0  0  0  0  0  0
   20.2199  -10.1449    0.0000 C    0  0  0  0  0  0  0  0  0  0  0  0
   19.3603  -11.1647    0.0000 C    0  0  0  0  0  0  0  0  0  0  0  0
   17.1173  -15.4554    0.0000 C    0  0  0  0  0  0  0  0  0  0  0  0
   15.8051  -15.6770    0.0000 C    0  0  0  0  0  0  0  0  0  0  0  0
   17.5782  -14.2144    0.0000 C    0  0  0  0  0  0  0  0  0  0  0  0
   14.9632  -14.6576    0.0000 C    0  0  0  0  0  0  0  0  0  0  0  0
   16.7270  -13.1857    0.0000 C    0  0  0  0  0  0  0  0  0  0  0  0
   15.4149  -13.4077    0.0000 C    0  0  0  0  0  0  0  0  0  0  0  0
   20.6458  -12.6273    0.0000 C    0  0  0  0  0  0  0  0  0  0  0  0
   20.6369  -13.9573    0.0000 C    0  0  0  0  0  0  0  0  0  0  0  0
   19.4933  -11.9536    0.0000 C    0  0  0  0  0  0  0  0  0  0  0  0
   19.4844  -14.6131    0.0000 C    0  0  0  0  0  0  0  0  0  0  0  0
   18.3404  -12.6095    0.0000 C    0  0  0  0  0  0  0  0  0  0  0  0
   18.3315  -13.9395    0.0000 C    0  0  0  0  0  0  0  0  0  0  0  0
   15.9203   -1.6609    0.0000 C    0  0  0  0  0  0  0  0  0  0  0  0
   17.2236   -1.4393    0.0000 C    0  0  0  0  0  0  0  0  0  0  0  0
   15.4594   -2.9108    0.0000 C    0  0  0  0  0  0  0  0  0  0  0  0
   18.0833   -2.4587    0.0000 C    0  0  0  0  0  0  0  0  0  0  0  0
   16.3101   -3.9306    0.0000 C    0  0  0  0  0  0  0  0  0  0  0  0
   17.6223   -3.7086    0.0000 C    0  0  0  0  0  0  0  0  0  0  0  0
   17.8354   -6.7321    0.0000 C    0  0  0  0  0  0  0  0  0  0  0  0
   19.1471   -6.9626    0.0000 C    0  0  0  0  0  0  0  0  0  0  0  0
   17.3829   -5.4818    0.0000 C    0  0  0  0  0  0  0  0  0  0  0  0
   20.0072   -5.9516    0.0000 C    0  0  0  0  0  0  0  0  0  0  0  0
   18.2430   -4.4624    0.0000 C    0  0  0  0  0  0  0  0  0  0  0  0
   19.5552   -4.6928    0.0000 C    0  0  0  0  0  0  0  0  0  0  0  0
   14.8391   -3.4519    0.0000 C    0  0  0  0  0  0  0  0  0  0  0  0
   13.6867   -2.7867    0.0000 C    0  0  0  0  0  0  0  0  0  0  0  0
   14.8391   -4.7814    0.0000 C    0  0  0  0  0  0  0  0  0  0  0  0
   12.5338   -3.4519    0.0000 C    0  0  0  0  0  0  0  0  0  0  0  0
   13.6867   -5.4466    0.0000 C    0  0  0  0  0  0  0  0  0  0  0  0
   12.5338   -4.7814    0.0000 C    0  0  0  0  0  0  0  0  0  0  0  0
   12.3033   -9.3471    0.0000 C    0  0  0  0  0  0  0  0  0  0  0  0
   12.0817   -8.0442    0.0000 C    0  0  0  0  0  0  0  0  0  0  0  0
   11.2839  -10.1894    0.0000 C    0  0  0  0  0  0  0  0  0  0  0  0
   10.8403   -7.5833    0.0000 C    0  0  0  0  0  0  0  0  0  0  0  0
   10.0336   -9.7284    0.0000 C    0  0  0  0  0  0  0  0  0  0  0  0
    9.8120   -8.4256    0.0000 C    0  0  0  0  0  0  0  0  0  0  0  0
   13.1634   -7.5477    0.0000 C    0  0  0  0  0  0  0  0  0  0  0  0
   14.0146   -8.5582    0.0000 C    0  0  0  0  0  0  0  0  0  0  0  0
   13.6333   -6.2978    0.0000 C    0  0  0  0  0  0  0  0  0  0  0  0
   15.3174   -8.3455    0.0000 C    0  0  0  0  0  0  0  0  0  0  0  0
   14.9454   -6.0758    0.0000 C    0  0  0  0  0  0  0  0  0  0  0  0
   15.7784   -7.1045    0.0000 C    0  0  0  0  0  0  0  0  0  0  0  0
   12.9240  -14.7996    0.0000 C    0  0  0  0  0  0  0  0  0  0  0  0
   13.3850  -13.5492    0.0000 C    0  0  0  0  0  0  0  0  0  0  0  0
   11.6118  -15.0211    0.0000 C    0  0  0  0  0  0  0  0  0  0  0  0
   12.5427  -12.5209    0.0000 C    0  0  0  0  0  0  0  0  0  0  0  0
   10.7695  -13.9929    0.0000 C    0  0  0  0  0  0  0  0  0  0  0  0
   11.2305  -12.7425    0.0000 C    0  0  0  0  0  0  0  0  0  0  0  0
   16.0445  -11.2711    0.0000 Rh   0  0  0  0  0  0  0  0  0  0  0  0
   17.1969  -10.6148    0.0000 H    0  0  0  0  0  0  0  0  0  0  0  0
   16.0356  -12.6006    0.0000 H    0  0  0  0  0  0  0  0  0  0  0  0
   17.1969  -11.9447    0.0000 P    0  0  0  0  0  0  0  0  0  0  0  0
   16.0796   -5.2424    0.0000 P    0  0  0  0  0  0  0  0  0  0  0  0
   13.5536   -9.8081    0.0000 P    0  0  0  0  0  0  0  0  0  0  0  0
   14.8880  -11.9279    0.0000 N    0  0  0  0  0  0  0  0  0  0  0  0
   13.7409  -11.2547    0.0000 C    0  0  0  0  0  0  0  0  0  0  0  0
   12.5938  -10.5816    0.0000 S    0  0  0  0  0  0  0  0  0  0  0  0
  1  2  1  0  0  0  0
  1  3  2  0  0  0  0
  2  4  2  0  0  0  0
  3  5  1  0  0  0  0
  4  6  1  0  0  0  0
  5  6  2  0  0  0  0
  7  8  1  0  0  0  0
  7  9  2  0  0  0  0
  8 10  2  0  0  0  0
  9 11  1  0  0  0  0
 10 12  1  0  0  0  0
 11 12  2  0  0  0  0
 13 14  1  0  0  0  0
 13 15  2  0  0  0  0
 14 16  2  0  0  0  0
 15 17  1  0  0  0  0
 16 18  1  0  0  0  0
 17 18  2  0  0  0  0
 19 20  1  0  0  0  0
 19 21  2  0  0  0  0
 20 22  2  0  0  0  0
 21 23  1  0  0  0  0
 22 24  1  0  0  0  0
 23 24  2  0  0  0  0
 25 26  1  0  0  0  0
 25 27  2  0  0  0  0
 26 28  2  0  0  0  0
 27 29  1  0  0  0  0
 28 30  1  0  0  0  0
 29 30  2  0  0  0  0
 31 32  1  0  0  0  0
 31 33  2  0  0  0  0
 32 34  2  0  0  0  0
 33 35  1  0  0  0  0
 34 36  1  0  0  0  0
 35 36  2  0  0  0  0
 37 38  1  0  0  0  0
 37 39  2  0  0  0  0
 38 40  2  0  0  0  0
 39 41  1  0  0  0  0
 40 42  1  0  0  0  0
 41 42  2  0  0  0  0
 43 44  1  0  0  0  0
 43 45  2  0  0  0  0
 44 46  2  0  0  0  0
 45 47  1  0  0  0  0
 46 48  1  0  0  0  0
 47 48  2  0  0  0  0
 49 50  1  0  0  0  0
 49 51  2  0  0  0  0
 50 52  2  0  0  0  0
 51 53  1  0  0  0  0
 52 54  1  0  0  0  0
 53 54  2  0  0  0  0
 55 56  1  0  0  0  0
 55 57  1  0  0  0  0
 55 58  1  0  0  0  0
 55 59  1  0  0  0  0
 55 60  1  0  0  0  0
 52 60  1  0  0  0  0
 44 60  1  0  0  0  0
 37 60  1  0  0  0  0
 33 59  1  0  0  0  0
 27 59  1  0  0  0  0
 23 59  1  0  0  0  0
 17 58  1  0  0  0  0
 11 58  1  0  0  0  0
  4 58  1  0  0  0  0
 61 62  2  0  0  0  0
 62 63  2  0  0  0  0
 55 61  1  0  0  0  0
M  END
> <NMREDATA_VERSION>
1.1

> <NMREDATA_LEVEL>
0

> <NMREDATA_SOLVENT>
DCCl3

> <NMREDATA_TEMPERATURE>
247

> <NMREDATA_FORMULA>
C55H50NP3RhS

> <NMREDATA_SMILES>
S=C=N[RhH2](P(c1ccccc1)(c1ccccc1)c1ccccc1)(P(c1ccccc1)(c1ccccc1)c1ccccc1)P(c1ccccc1)(c1ccccc1)c1ccccc1

> <NMREDATA_ASSIGNMENT>
Rh55, 21.00, 55

> <NMREDATA_1D_103Rh>
21.00, L=Rh55

$$$$

  ACD/LABS03282419342D

 65 73  0  0  0  0  0  0  0  0  1 V2000
   18.4557   -8.6556    0.0000 C    0  0  0  0  0  0  0  0  0  0  0  0
   17.6045   -9.6750    0.0000 C    0  0  0  0  0  0  0  0  0  0  0  0
   19.7679   -8.8950    0.0000 C    0  0  0  0  0  0  0  0  0  0  0  0
   18.0481  -10.9253    0.0000 C    0  0  0  0  0  0  0  0  0  0  0  0
   20.2199  -10.1449    0.0000 C    0  0  0  0  0  0  0  0  0  0  0  0
   19.3603  -11.1647    0.0000 C    0  0  0  0  0  0  0  0  0  0  0  0
   17.1173  -15.4554    0.0000 C    0  0  0  0  0  0  0  0  0  0  0  0
   15.8051  -15.6770    0.0000 C    0  0  0  0  0  0  0  0  0  0  0  0
   17.5782  -14.2144    0.0000 C    0  0  0  0  0  0  0  0  0  0  0  0
   14.9632  -14.6576    0.0000 C    0  0  0  0  0  0  0  0  0  0  0  0
   16.7270  -13.1857    0.0000 C    0  0  0  0  0  0  0  0  0  0  0  0
   15.4149  -13.4077    0.0000 C    0  0  0  0  0  0  0  0  0  0  0  0
   20.6458  -12.6273    0.0000 C    0  0  0  0  0  0  0  0  0  0  0  0
   20.6369  -13.9573    0.0000 C    0  0  0  0  0  0  0  0  0  0  0  0
   19.4933  -11.9536    0.0000 C    0  0  0  0  0  0  0  0  0  0  0  0
   19.4844  -14.6131    0.0000 C    0  0  0  0  0  0  0  0  0  0  0  0
   18.3404  -12.6095    0.0000 C    0  0  0  0  0  0  0  0  0  0  0  0
   18.3315  -13.9395    0.0000 C    0  0  0  0  0  0  0  0  0  0  0  0
   15.9203   -1.6609    0.0000 C    0  0  0  0  0  0  0  0  0  0  0  0
   17.2236   -1.4393    0.0000 C    0  0  0  0  0  0  0  0  0  0  0  0
   15.4594   -2.9108    0.0000 C    0  0  0  0  0  0  0  0  0  0  0  0
   18.0833   -2.4587    0.0000 C    0  0  0  0  0  0  0  0  0  0  0  0
   16.3101   -3.9306    0.0000 C    0  0  0  0  0  0  0  0  0  0  0  0
   17.6223   -3.7086    0.0000 C    0  0  0  0  0  0  0  0  0  0  0  0
   17.8354   -6.7321    0.0000 C    0  0  0  0  0  0  0  0  0  0  0  0
   19.1471   -6.9626    0.0000 C    0  0  0  0  0  0  0  0  0  0  0  0
   17.3829   -5.4818    0.0000 C    0  0  0  0  0  0  0  0  0  0  0  0
   20.0072   -5.9516    0.0000 C    0  0  0  0  0  0  0  0  0  0  0  0
   18.2430   -4.4624    0.0000 C    0  0  0  0  0  0  0  0  0  0  0  0
   19.5552   -4.6928    0.0000 C    0  0  0  0  0  0  0  0  0  0  0  0
   14.8391   -3.4519    0.0000 C    0  0  0  0  0  0  0  0  0  0  0  0
   13.6867   -2.7867    0.0000 C    0  0  0  0  0  0  0  0  0  0  0  0
   14.8391   -4.7814    0.0000 C    0  0  0  0  0  0  0  0  0  0  0  0
   12.5338   -3.4519    0.0000 C    0  0  0  0  0  0  0  0  0  0  0  0
   13.6867   -5.4466    0.0000 C    0  0  0  0  0  0  0  0  0  0  0  0
   12.5338   -4.7814    0.0000 C    0  0  0  0  0  0  0  0  0  0  0  0
   12.3033   -9.3471    0.0000 C    0  0  0  0  0  0  0  0  0  0  0  0
   12.0817   -8.0442    0.0000 C    0  0  0  0  0  0  0  0  0  0  0  0
   11.2839  -10.1894    0.0000 C    0  0  0  0  0  0  0  0  0  0  0  0
   10.8403   -7.5833    0.0000 C    0  0  0  0  0  0  0  0  0  0  0  0
   10.0336   -9.7284    0.0000 C    0  0  0  0  0  0  0  0  0  0  0  0
    9.8120   -8.4256    0.0000 C    0  0  0  0  0  0  0  0  0  0  0  0
   13.1634   -7.5477    0.0000 C    0  0  0  0  0  0  0  0  0  0  0  0
   14.0146   -8.5582    0.0000 C    0  0  0  0  0  0  0  0  0  0  0  0
   13.6333   -6.2978    0.0000 C    0  0  0  0  0  0  0  0  0  0  0  0
   15.3174   -8.3455    0.0000 C    0  0  0  0  0  0  0  0  0  0  0  0
   14.9454   -6.0758    0.0000 C    0  0  0  0  0  0  0  0  0  0  0  0
   15.7784   -7.1045    0.0000 C    0  0  0  0  0  0  0  0  0  0  0  0
   12.9240  -14.7996    0.0000 C    0  0  0  0  0  0  0  0  0  0  0  0
   13.3850  -13.5492    0.0000 C    0  0  0  0  0  0  0  0  0  0  0  0
   11.6118  -15.0211    0.0000 C    0  0  0  0  0  0  0  0  0  0  0  0
   12.5427  -12.5209    0.0000 C    0  0  0  0  0  0  0  0  0  0  0  0
   10.7695  -13.9929    0.0000 C    0  0  0  0  0  0  0  0  0  0  0  0
   11.2305  -12.7425    0.0000 C    0  0  0  0  0  0  0  0  0  0  0  0
   16.0445  -11.2711    0.0000 Rh   0  0  0  0  0  0  0  0  0  0  0  0
   17.1969  -10.6148    0.0000 H    0  0  0  0  0  0  0  0  0  0  0  0
   16.0356  -12.6006    0.0000 H    0  0  0  0  0  0  0  0  0  0  0  0
   17.1969  -11.9447    0.0000 P    0  0  0  0  0  0  0  0  0  0  0  0
   16.0796   -5.2424    0.0000 P    0  0  0  0  0  0  0  0  0  0  0  0
   13.5536   -9.8081    0.0000 P    0  0  0  0  0  0  0  0  0  0  0  0
   14.8880  -11.9279    0.0000 N    0  0  0  0  0  0  0  0  0  0  0  0
   13.7409  -11.2547    0.0000 C    0  0  0  0  0  0  0  0  0  0  0  0
   12.5938  -10.5816    0.0000 N    0  0  0  0  0  0  0  0  0  0  0  0
   14.8785  -13.2579    0.0000 C    0  0  0  0  0  0  0  0  0  0  0  0
   14.8691  -14.5878    0.0000 N    0  0  0  0  0  0  0  0  0  0  0  0
  1  2  1  0  0  0  0
  1  3  2  0  0  0  0
  2  4  2  0  0  0  0
  3  5  1  0  0  0  0
  4  6  1  0  0  0  0
  5  6  2  0  0  0  0
  7  8  1  0  0  0  0
  7  9  2  0  0  0  0
  8 10  2  0  0  0  0
  9 11  1  0  0  0  0
 10 12  1  0  0  0  0
 11 12  2  0  0  0  0
 13 14  1  0  0  0  0
 13 15  2  0  0  0  0
 14 16  2  0  0  0  0
 15 17  1  0  0  0  0
 16 18  1  0  0  0  0
 17 18  2  0  0  0  0
 19 20  1  0  0  0  0
 19 21  2  0  0  0  0
 20 22  2  0  0  0  0
 21 23  1  0  0  0  0
 22 24  1  0  0  0  0
 23 24  2  0  0  0  0
 25 26  1  0  0  0  0
 25 27  2  0  0  0  0
 26 28  2  0  0  0  0
 27 29  1  0  0  0  0
 28 30  1  0  0  0  0
 29 30  2  0  0  0  0
 31 32  1  0  0  0  0
 31 33  2  0  0  0  0
 32 34  2  0  0  0  0
 33 35  1  0  0  0  0
 34 36  1  0  0  0  0
 35 36  2  0  0  0  0
 37 38  1  0  0  0  0
 37 39  2  0  0  0  0
 38 40  2  0  0  0  0
 39 41  1  0  0  0  0
 40 42  1  0  0  0  0
 41 42  2  0  0  0  0
 43 44  1  0  0  0  0
 43 45  2  0  0  0  0
 44 46  2  0  0  0  0
 45 47  1  0  0  0  0
 46 48  1  0  0  0  0
 47 48  2  0  0  0  0
 49 50  1  0  0  0  0
 49 51  2  0  0  0  0
 50 52  2  0  0  0  0
 51 53  1  0  0  0  0
 52 54  1  0  0  0  0
 53 54  2  0  0  0  0
 55 56  1  0  0  0  0
 55 57  1  0  0  0  0
 55 58  1  0  0  0  0
 55 59  1  0  0  0  0
 55 60  1  0  0  0  0
 52 60  1  0  0  0  0
 44 60  1  0  0  0  0
 37 60  1  0  0  0  0
 33 59  1  0  0  0  0
 27 59  1  0  0  0  0
 23 59  1  0  0  0  0
 17 58  1  0  0  0  0
 11 58  1  0  0  0  0
  4 58  1  0  0  0  0
 55 61  1  0  0  0  0
 62 63  3  0  0  0  0
 61 62  1  0  0  0  0
 64 65  3  0  0  0  0
 61 64  1  0  0  0  0
M  END
> <NMREDATA_VERSION>
1.1

> <NMREDATA_LEVEL>
0

> <NMREDATA_SOLVENT>
DCCl3

> <NMREDATA_TEMPERATURE>
247

> <NMREDATA_FORMULA>
C56H50N3P3Rh

> <NMREDATA_SMILES>
N#CN([RhH2](P(c1ccccc1)(c1ccccc1)c1ccccc1)(P(c1ccccc1)(c1ccccc1)c1ccccc1)P(c1ccccc1)(c1ccccc1)c1ccccc1)C#N

> <NMREDATA_ASSIGNMENT>
Rh55, 3.00, 55

> <NMREDATA_1D_103Rh>
3.00, L=Rh55

$$$$

  ACD/LABS03282419352D

 81 92  0  0  0  0  0  0  0  0  1 V2000
   10.1853  -16.7932    0.0000 C    0  0  0  0  0  0  0  0  0  0  0  0
    9.9521  -18.1022    0.0000 C    0  0  0  0  0  0  0  0  0  0  0  0
   11.4361  -16.3480    0.0000 C    0  0  0  0  0  0  0  0  0  0  0  0
   10.9690  -18.9662    0.0000 C    0  0  0  0  0  0  0  0  0  0  0  0
   12.4571  -17.2038    0.0000 C    0  0  0  0  0  0  0  0  0  0  0  0
   12.2164  -18.5085    0.0000 C    0  0  0  0  0  0  0  0  0  0  0  0
   12.9026  -18.9153    0.0000 C    0  0  0  0  0  0  0  0  0  0  0  0
   13.1296  -20.2237    0.0000 C    0  0  0  0  0  0  0  0  0  0  0  0
   13.9269  -18.0624    0.0000 C    0  0  0  0  0  0  0  0  0  0  0  0
   14.3817  -20.6803    0.0000 C    0  0  0  0  0  0  0  0  0  0  0  0
   15.1715  -18.5147    0.0000 C    0  0  0  0  0  0  0  0  0  0  0  0
   15.4063  -19.8282    0.0000 C    0  0  0  0  0  0  0  0  0  0  0  0
   13.2547  -15.5032    0.0000 C    0  0  0  0  0  0  0  0  0  0  0  0
   14.1105  -14.4822    0.0000 C    0  0  0  0  0  0  0  0  0  0  0  0
   11.9457  -15.2700    0.0000 C    0  0  0  0  0  0  0  0  0  0  0  0
   13.6653  -13.2314    0.0000 C    0  0  0  0  0  0  0  0  0  0  0  0
   11.4922  -14.0151    0.0000 C    0  0  0  0  0  0  0  0  0  0  0  0
   12.3563  -12.9982    0.0000 C    0  0  0  0  0  0  0  0  0  0  0  0
   16.0199  -18.8717    0.0000 C    0  0  0  0  0  0  0  0  0  0  0  0
   17.0448  -18.0191    0.0000 C    0  0  0  0  0  0  0  0  0  0  0  0
   16.2474  -20.1804    0.0000 C    0  0  0  0  0  0  0  0  0  0  0  0
   18.2889  -18.4711    0.0000 C    0  0  0  0  0  0  0  0  0  0  0  0
   17.4995  -20.6370    0.0000 C    0  0  0  0  0  0  0  0  0  0  0  0
   18.5241  -19.7849    0.0000 C    0  0  0  0  0  0  0  0  0  0  0  0
   21.6097  -14.9722    0.0000 C    0  0  0  0  0  0  0  0  0  0  0  0
   22.7620  -15.6375    0.0000 C    0  0  0  0  0  0  0  0  0  0  0  0
   20.4616  -15.6302    0.0000 C    0  0  0  0  0  0  0  0  0  0  0  0
   22.7657  -16.9605    0.0000 C    0  0  0  0  0  0  0  0  0  0  0  0
   20.4612  -16.9615    0.0000 C    0  0  0  0  0  0  0  0  0  0  0  0
   21.6135  -17.6267    0.0000 C    0  0  0  0  0  0  0  0  0  0  0  0
   20.5586  -20.9081    0.0000 C    0  0  0  0  0  0  0  0  0  0  0  0
   21.8753  -20.6852    0.0000 C    0  0  0  0  0  0  0  0  0  0  0  0
   19.7094  -19.8959    0.0000 C    0  0  0  0  0  0  0  0  0  0  0  0
   22.3319  -19.4331    0.0000 C    0  0  0  0  0  0  0  0  0  0  0  0
   20.1660  -18.6438    0.0000 C    0  0  0  0  0  0  0  0  0  0  0  0
   21.4747  -18.4163    0.0000 C    0  0  0  0  0  0  0  0  0  0  0  0
   11.3285   -6.2819    0.0000 C    0  0  0  0  0  0  0  0  0  0  0  0
   10.0074   -6.5123    0.0000 C    0  0  0  0  0  0  0  0  0  0  0  0
   12.1733   -7.3016    0.0000 C    0  0  0  0  0  0  0  0  0  0  0  0
    9.5554   -7.7564    0.0000 C    0  0  0  0  0  0  0  0  0  0  0  0
   11.7167   -8.5537    0.0000 C    0  0  0  0  0  0  0  0  0  0  0  0
   10.4080   -8.7812    0.0000 C    0  0  0  0  0  0  0  0  0  0  0  0
   11.7839  -11.7367    0.0000 C    0  0  0  0  0  0  0  0  0  0  0  0
   10.7639  -12.5808    0.0000 C    0  0  0  0  0  0  0  0  0  0  0  0
   11.5566  -10.4275    0.0000 C    0  0  0  0  0  0  0  0  0  0  0  0
    9.5118  -12.1242    0.0000 C    0  0  0  0  0  0  0  0  0  0  0  0
   10.3045   -9.9709    0.0000 C    0  0  0  0  0  0  0  0  0  0  0  0
    9.2850  -10.8153    0.0000 C    0  0  0  0  0  0  0  0  0  0  0  0
   13.3630   -7.4051    0.0000 C    0  0  0  0  0  0  0  0  0  0  0  0
   14.3878   -6.5525    0.0000 C    0  0  0  0  0  0  0  0  0  0  0  0
   13.5985   -8.7184    0.0000 C    0  0  0  0  0  0  0  0  0  0  0  0
   15.6396   -7.0096    0.0000 C    0  0  0  0  0  0  0  0  0  0  0  0
   14.8426   -9.1704    0.0000 C    0  0  0  0  0  0  0  0  0  0  0  0
   15.8628   -8.3258    0.0000 C    0  0  0  0  0  0  0  0  0  0  0  0
   18.6788  -11.3752    0.0000 C    0  0  0  0  0  0  0  0  0  0  0  0
   19.9339  -10.9225    0.0000 C    0  0  0  0  0  0  0  0  0  0  0  0
   17.6701  -10.5166    0.0000 C    0  0  0  0  0  0  0  0  0  0  0  0
   20.1674   -9.6131    0.0000 C    0  0  0  0  0  0  0  0  0  0  0  0
   17.9036   -9.2071    0.0000 C    0  0  0  0  0  0  0  0  0  0  0  0
   19.1502   -8.7495    0.0000 C    0  0  0  0  0  0  0  0  0  0  0  0
   20.4302  -13.8407    0.0000 C    0  0  0  0  0  0  0  0  0  0  0  0
   19.7761  -12.6849    0.0000 C    0  0  0  0  0  0  0  0  0  0  0  0
   21.7647  -13.8530    0.0000 C    0  0  0  0  0  0  0  0  0  0  0  0
   20.4494  -11.5372    0.0000 C    0  0  0  0  0  0  0  0  0  0  0  0
   22.4297  -12.7012    0.0000 C    0  0  0  0  0  0  0  0  0  0  0  0
   21.7755  -11.5453    0.0000 C    0  0  0  0  0  0  0  0  0  0  0  0
   14.9761  -13.2313    0.0000 C    0  0  0  0  0  0  0  0  0  0  0  0
   16.2772  -13.4599    0.0000 C    0  0  0  0  0  0  0  0  0  0  0  0
   14.5232  -11.9767    0.0000 C    0  0  0  0  0  0  0  0  0  0  0  0
   17.1286  -12.4465    0.0000 C    0  0  0  0  0  0  0  0  0  0  0  0
   15.3824  -10.9671    0.0000 C    0  0  0  0  0  0  0  0  0  0  0  0
   16.6911  -11.2007    0.0000 C    0  0  0  0  0  0  0  0  0  0  0  0
   17.4523  -15.3978    0.0000 Rh   0  0  0  0  0  0  0  0  0  0  0  0
   16.9959  -16.6494    0.0000 H    0  0  0  0  0  0  0  0  0  0  0  0
   18.7564  -15.1783    0.0000 H    0  0  0  0  0  0  0  0  0  0  0  0
   19.3134  -17.6190    0.0000 P    0  0  0  0  0  0  0  0  0  0  0  0
   12.5737   -9.5710    0.0000 P    0  0  0  0  0  0  0  0  0  0  0  0
   18.4456  -12.6843    0.0000 P    0  0  0  0  0  0  0  0  0  0  0  0
   16.2019  -15.8432    0.0000 N    0  0  0  0  0  0  0  0  0  0  0  0
   14.9468  -16.2959    0.0000 C    0  0  0  0  0  0  0  0  0  0  0  0
   13.6999  -16.7540    0.0000 B    0  0  0  0  0  0  0  0  0  0  0  0
  1  2  1  0  0  0  0
  1  3  2  0  0  0  0
  2  4  2  0  0  0  0
  3  5  1  0  0  0  0
  4  6  1  0  0  0  0
  5  6  2  0  0  0  0
  7  8  1  0  0  0  0
  7  9  2  0  0  0  0
  8 10  2  0  0  0  0
  9 11  1  0  0  0  0
 10 12  1  0  0  0  0
 11 12  2  0  0  0  0
 13 14  1  0  0  0  0
 13 15  2  0  0  0  0
 14 16  2  0  0  0  0
 15 17  1  0  0  0  0
 16 18  1  0  0  0  0
 17 18  2  0  0  0  0
 19 20  1  0  0  0  0
 19 21  2  0  0  0  0
 20 22  2  0  0  0  0
 21 23  1  0  0  0  0
 22 24  1  0  0  0  0
 23 24  2  0  0  0  0
 25 26  1  0  0  0  0
 25 27  2  0  0  0  0
 26 28  2  0  0  0  0
 27 29  1  0  0  0  0
 28 30  1  0  0  0  0
 29 30  2  0  0  0  0
 31 32  1  0  0  0  0
 31 33  2  0  0  0  0
 32 34  2  0  0  0  0
 33 35  1  0  0  0  0
 34 36  1  0  0  0  0
 35 36  2  0  0  0  0
 37 38  1  0  0  0  0
 37 39  2  0  0  0  0
 38 40  2  0  0  0  0
 39 41  1  0  0  0  0
 40 42  1  0  0  0  0
 41 42  2  0  0  0  0
 43 44  1  0  0  0  0
 43 45  2  0  0  0  0
 44 46  2  0  0  0  0
 45 47  1  0  0  0  0
 46 48  1  0  0  0  0
 47 48  2  0  0  0  0
 49 50  1  0  0  0  0
 49 51  2  0  0  0  0
 50 52  2  0  0  0  0
 51 53  1  0  0  0  0
 52 54  1  0  0  0  0
 53 54  2  0  0  0  0
 55 56  1  0  0  0  0
 55 57  2  0  0  0  0
 56 58  2  0  0  0  0
 57 59  1  0  0  0  0
 58 60  1  0  0  0  0
 59 60  2  0  0  0  0
 61 62  1  0  0  0  0
 61 63  2  0  0  0  0
 62 64  2  0  0  0  0
 63 65  1  0  0  0  0
 64 66  1  0  0  0  0
 65 66  2  0  0  0  0
 67 68  1  0  0  0  0
 67 69  2  0  0  0  0
 68 70  2  0  0  0  0
 69 71  1  0  0  0  0
 70 72  1  0  0  0  0
 71 72  2  0  0  0  0
 73 74  1  0  0  0  0
 73 75  1  0  0  0  0
 73 76  1  0  0  0  0
 73 77  1  0  0  0  0
 73 78  1  0  0  0  0
 70 78  1  0  0  0  0
 62 78  1  0  0  0  0
 55 78  1  0  0  0  0
 51 77  1  0  0  0  0
 45 77  1  0  0  0  0
 41 77  1  0  0  0  0
 35 76  1  0  0  0  0
 29 76  1  0  0  0  0
 22 76  1  0  0  0  0
 79 80  3  0  0  0  0
 73 79  1  0  0  0  0
 80 81  1  0  0  0  0
 13 81  1  0  0  0  0
  9 81  1  0  0  0  0
  5 81  1  0  0  0  0
M  END
> <NMREDATA_VERSION>
1.1

> <NMREDATA_LEVEL>
0

> <NMREDATA_SOLVENT>
DCCl3

> <NMREDATA_TEMPERATURE>
247

> <NMREDATA_FORMULA>
C73H66BNP3Rh

> <NMREDATA_SMILES>
c1ccc(cc1)[B](c1ccccc1)(c1ccccc1)C#N[RhH2](P(c1ccccc1)(c1ccccc1)c1ccccc1)(P(c1ccccc1)(c1ccccc1)c1ccccc1)P(c1ccccc1)(c1ccccc1)c1ccccc1

> <NMREDATA_ASSIGNMENT>
Rh73, -40.00, 73

> <NMREDATA_1D_103Rh>
-40.00, L=Rh73

$$$$

  ACD/LABS03282419372D

 50 56  0  0  0  0  0  0  0  0  2 V2000
   13.5206  -17.3740    0.0000 C    0  0  0  0  0  0  0  0  0  0  0  0
   14.7758  -17.8274    0.0000 C    0  0  0  0  0  0  0  0  0  0  0  0
   13.2872  -16.0647    0.0000 C    0  0  0  0  0  0  0  0  0  0  0  0
   15.7930  -16.9634    0.0000 C    0  0  0  0  0  0  0  0  0  0  0  0
   14.3040  -15.2009    0.0000 N    0  0  0  0  0  0  0  0  0  0  0  0
   15.5595  -15.6541    0.0000 C    0  0  0  0  0  0  0  0  0  0  0  0
   11.8366   -7.9819    0.0000 C    0  0  0  0  0  0  0  0  0  0  0  0
   12.8534   -7.1181    0.0000 C    0  0  0  0  0  0  0  0  0  0  0  0
   12.0701   -9.2912    0.0000 C    0  0  0  0  0  0  0  0  0  0  0  0
   14.1010   -7.5759    0.0000 C    0  0  0  0  0  0  0  0  0  0  0  0
   13.3207   -9.7366    0.0000 C    0  0  0  0  0  0  0  0  0  0  0  0
   14.3424   -8.8807    0.0000 C    0  0  0  0  0  0  0  0  0  0  0  0
   11.3934  -10.2656    0.0000 C    0  0  0  0  0  0  0  0  0  0  0  0
   10.0764  -10.5035    0.0000 C    0  0  0  0  0  0  0  0  0  0  0  0
   12.2494  -11.2874    0.0000 C    0  0  0  0  0  0  0  0  0  0  0  0
    9.6307  -11.7543    0.0000 C    0  0  0  0  0  0  0  0  0  0  0  0
   11.8039  -12.5380    0.0000 C    0  0  0  0  0  0  0  0  0  0  0  0
   10.4870  -12.7758    0.0000 C    0  0  0  0  0  0  0  0  0  0  0  0
   15.3133   -9.5695    0.0000 C    0  0  0  0  0  0  0  0  0  0  0  0
   16.6180   -9.3281    0.0000 C    0  0  0  0  0  0  0  0  0  0  0  0
   14.8635  -10.8125    0.0000 C    0  0  0  0  0  0  0  0  0  0  0  0
   17.4816  -10.3455    0.0000 C    0  0  0  0  0  0  0  0  0  0  0  0
   15.7226  -11.8214    0.0000 C    0  0  0  0  0  0  0  0  0  0  0  0
   17.0240  -11.5925    0.0000 C    0  0  0  0  0  0  0  0  0  0  0  0
   19.9249   -9.5389    0.0000 C    0  0  0  0  0  0  0  0  0  0  0  0
   20.9451  -10.3834    0.0000 C    0  0  0  0  0  0  0  0  0  0  0  0
   20.1449   -8.2343    0.0000 C    0  0  0  0  0  0  0  0  0  0  0  0
   22.1931   -9.9193    0.0000 C    0  0  0  0  0  0  0  0  0  0  0  0
   21.3923   -7.7700    0.0000 C    0  0  0  0  0  0  0  0  0  0  0  0
   22.4201   -8.6101    0.0000 C    0  0  0  0  0  0  0  0  0  0  0  0
   17.1775   -8.2575    0.0000 C    0  0  0  0  0  0  0  0  0  0  0  0
   18.4361   -8.6983    0.0000 C    0  0  0  0  0  0  0  0  0  0  0  0
   16.9365   -6.9526    0.0000 C    0  0  0  0  0  0  0  0  0  0  0  0
   19.4455   -7.8394    0.0000 C    0  0  0  0  0  0  0  0  0  0  0  0
   17.9489   -6.0812    0.0000 C    0  0  0  0  0  0  0  0  0  0  0  0
   19.2000   -6.5268    0.0000 C    0  0  0  0  0  0  0  0  0  0  0  0
   21.4593  -14.1836    0.0000 C    0  0  0  0  0  0  0  0  0  0  0  0
   20.9993  -12.9434    0.0000 C    0  0  0  0  0  0  0  0  0  0  0  0
   20.6113  -15.2160    0.0000 C    0  0  0  0  0  0  0  0  0  0  0  0
   19.6827  -12.7202    0.0000 C    0  0  0  0  0  0  0  0  0  0  0  0
   19.3023  -14.9884    0.0000 C    0  0  0  0  0  0  0  0  0  0  0  0
   18.8378  -13.7406    0.0000 C    0  0  0  0  0  0  0  0  0  0  0  0
   14.0705  -13.8916    0.0000 Rh   0  0  0  0  0  0  0  0  0  0  0  0
   13.0534  -14.7555    0.0000 H    0  0  0  0  0  0  0  0  0  0  0  0
   15.3181  -14.3493    0.0000 H    0  0  0  0  0  0  0  0  0  0  0  0
   13.5585  -11.0536    0.0000 P    0  0  0  0  0  0  0  0  0  0  0  0
   18.6817  -10.0113    0.0000 P    0  0  0  0  0  0  0  0  0  0  0  0
   12.8199  -13.4462    0.0000 N    0  0  0  0  0  0  0  0  0  0  0  0
   11.7982  -14.3021    0.0000 N    0  3  0  0  0  0  0  0  0  0  0  0
   10.7814  -15.1659    0.0000 N    0  5  0  0  0  0  0  0  0  0  0  0
  1  2  1  0  0  0  0
  1  3  2  0  0  0  0
  2  4  2  0  0  0  0
  3  5  1  0  0  0  0
  4  6  1  0  0  0  0
  5  6  2  0  0  0  0
  7  8  1  0  0  0  0
  7  9  2  0  0  0  0
  8 10  2  0  0  0  0
  9 11  1  0  0  0  0
 10 12  1  0  0  0  0
 11 12  2  0  0  0  0
 13 14  1  0  0  0  0
 13 15  2  0  0  0  0
 14 16  2  0  0  0  0
 15 17  1  0  0  0  0
 16 18  1  0  0  0  0
 17 18  2  0  0  0  0
 19 20  1  0  0  0  0
 19 21  2  0  0  0  0
 20 22  2  0  0  0  0
 21 23  1  0  0  0  0
 22 24  1  0  0  0  0
 23 24  2  0  0  0  0
 25 26  1  0  0  0  0
 25 27  2  0  0  0  0
 26 28  2  0  0  0  0
 27 29  1  0  0  0  0
 28 30  1  0  0  0  0
 29 30  2  0  0  0  0
 31 32  1  0  0  0  0
 31 33  2  0  0  0  0
 32 34  2  0  0  0  0
 33 35  1  0  0  0  0
 34 36  1  0  0  0  0
 35 36  2  0  0  0  0
 37 38  1  0  0  0  0
 37 39  2  0  0  0  0
 38 40  2  0  0  0  0
 39 41  1  0  0  0  0
 40 42  1  0  0  0  0
 41 42  2  0  0  0  0
 43 44  1  0  0  0  0
 43 45  1  0  0  0  0
 43 46  1  0  0  0  0
 43 47  1  0  0  0  0
 40 47  1  0  0  0  0
 32 47  1  0  0  0  0
 25 47  1  0  0  0  0
 21 46  1  0  0  0  0
 15 46  1  0  0  0  0
 11 46  1  0  0  0  0
  5 43  1  0  0  0  0
 48 49  2  0  0  0  0
 49 50  2  0  0  0  0
 43 48  1  0  0  0  0
M  END
> <NMREDATA_VERSION>
1.1

> <NMREDATA_LEVEL>
0

> <NMREDATA_SOLVENT>
toluene-d8

> <NMREDATA_TEMPERATURE>
300

> <NMREDATA_FORMULA>
C41H42N4P2Rh

> <NMREDATA_SMILES>
N=N=N[RhH2](P(c1ccccc1)(c1ccccc1)c1ccccc1)(P(c1ccccc1)(c1ccccc1)c1ccccc1)N1=CC=CC=C1

> <NMREDATA_ASSIGNMENT>
Rh43, 566.00, 43

> <NMREDATA_1D_103Rh>
566.00, L=Rh43

$$$$

  ACD/LABS03282419372D

 50 56  0  0  0  0  0  0  0  0  1 V2000
   13.5206  -17.3740    0.0000 C    0  0  0  0  0  0  0  0  0  0  0  0
   14.7758  -17.8274    0.0000 C    0  0  0  0  0  0  0  0  0  0  0  0
   13.2872  -16.0647    0.0000 C    0  0  0  0  0  0  0  0  0  0  0  0
   15.7930  -16.9634    0.0000 C    0  0  0  0  0  0  0  0  0  0  0  0
   14.3040  -15.2009    0.0000 N    0  0  0  0  0  0  0  0  0  0  0  0
   15.5595  -15.6541    0.0000 C    0  0  0  0  0  0  0  0  0  0  0  0
   11.8366   -7.9819    0.0000 C    0  0  0  0  0  0  0  0  0  0  0  0
   12.8534   -7.1181    0.0000 C    0  0  0  0  0  0  0  0  0  0  0  0
   12.0701   -9.2912    0.0000 C    0  0  0  0  0  0  0  0  0  0  0  0
   14.1010   -7.5759    0.0000 C    0  0  0  0  0  0  0  0  0  0  0  0
   13.3207   -9.7366    0.0000 C    0  0  0  0  0  0  0  0  0  0  0  0
   14.3424   -8.8807    0.0000 C    0  0  0  0  0  0  0  0  0  0  0  0
   11.3934  -10.2656    0.0000 C    0  0  0  0  0  0  0  0  0  0  0  0
   10.0764  -10.5035    0.0000 C    0  0  0  0  0  0  0  0  0  0  0  0
   12.2494  -11.2874    0.0000 C    0  0  0  0  0  0  0  0  0  0  0  0
    9.6307  -11.7543    0.0000 C    0  0  0  0  0  0  0  0  0  0  0  0
   11.8039  -12.5380    0.0000 C    0  0  0  0  0  0  0  0  0  0  0  0
   10.4870  -12.7758    0.0000 C    0  0  0  0  0  0  0  0  0  0  0  0
   15.3133   -9.5695    0.0000 C    0  0  0  0  0  0  0  0  0  0  0  0
   16.6180   -9.3281    0.0000 C    0  0  0  0  0  0  0  0  0  0  0  0
   14.8635  -10.8125    0.0000 C    0  0  0  0  0  0  0  0  0  0  0  0
   17.4816  -10.3455    0.0000 C    0  0  0  0  0  0  0  0  0  0  0  0
   15.7226  -11.8214    0.0000 C    0  0  0  0  0  0  0  0  0  0  0  0
   17.0240  -11.5925    0.0000 C    0  0  0  0  0  0  0  0  0  0  0  0
   19.9249   -9.5389    0.0000 C    0  0  0  0  0  0  0  0  0  0  0  0
   20.9451  -10.3834    0.0000 C    0  0  0  0  0  0  0  0  0  0  0  0
   20.1449   -8.2343    0.0000 C    0  0  0  0  0  0  0  0  0  0  0  0
   22.1931   -9.9193    0.0000 C    0  0  0  0  0  0  0  0  0  0  0  0
   21.3923   -7.7700    0.0000 C    0  0  0  0  0  0  0  0  0  0  0  0
   22.4201   -8.6101    0.0000 C    0  0  0  0  0  0  0  0  0  0  0  0
   17.1775   -8.2575    0.0000 C    0  0  0  0  0  0  0  0  0  0  0  0
   18.4361   -8.6983    0.0000 C    0  0  0  0  0  0  0  0  0  0  0  0
   16.9365   -6.9526    0.0000 C    0  0  0  0  0  0  0  0  0  0  0  0
   19.4455   -7.8394    0.0000 C    0  0  0  0  0  0  0  0  0  0  0  0
   17.9489   -6.0812    0.0000 C    0  0  0  0  0  0  0  0  0  0  0  0
   19.2000   -6.5268    0.0000 C    0  0  0  0  0  0  0  0  0  0  0  0
   21.4593  -14.1836    0.0000 C    0  0  0  0  0  0  0  0  0  0  0  0
   20.9993  -12.9434    0.0000 C    0  0  0  0  0  0  0  0  0  0  0  0
   20.6113  -15.2160    0.0000 C    0  0  0  0  0  0  0  0  0  0  0  0
   19.6827  -12.7202    0.0000 C    0  0  0  0  0  0  0  0  0  0  0  0
   19.3023  -14.9884    0.0000 C    0  0  0  0  0  0  0  0  0  0  0  0
   18.8378  -13.7406    0.0000 C    0  0  0  0  0  0  0  0  0  0  0  0
   14.0705  -13.8916    0.0000 Rh   0  0  0  0  0  0  0  0  0  0  0  0
   13.0534  -14.7555    0.0000 H    0  0  0  0  0  0  0  0  0  0  0  0
   15.3181  -14.3493    0.0000 H    0  0  0  0  0  0  0  0  0  0  0  0
   13.5585  -11.0536    0.0000 P    0  0  0  0  0  0  0  0  0  0  0  0
   18.6817  -10.0113    0.0000 P    0  0  0  0  0  0  0  0  0  0  0  0
   12.8185  -13.4429    0.0000 N    0  0  0  0  0  0  0  0  0  0  0  0
   11.8039  -14.3029    0.0000 C    0  0  0  0  0  0  0  0  0  0  0  0
   10.7894  -15.1629    0.0000 O    0  0  0  0  0  0  0  0  0  0  0  0
  1  2  1  0  0  0  0
  1  3  2  0  0  0  0
  2  4  2  0  0  0  0
  3  5  1  0  0  0  0
  4  6  1  0  0  0  0
  5  6  2  0  0  0  0
  7  8  1  0  0  0  0
  7  9  2  0  0  0  0
  8 10  2  0  0  0  0
  9 11  1  0  0  0  0
 10 12  1  0  0  0  0
 11 12  2  0  0  0  0
 13 14  1  0  0  0  0
 13 15  2  0  0  0  0
 14 16  2  0  0  0  0
 15 17  1  0  0  0  0
 16 18  1  0  0  0  0
 17 18  2  0  0  0  0
 19 20  1  0  0  0  0
 19 21  2  0  0  0  0
 20 22  2  0  0  0  0
 21 23  1  0  0  0  0
 22 24  1  0  0  0  0
 23 24  2  0  0  0  0
 25 26  1  0  0  0  0
 25 27  2  0  0  0  0
 26 28  2  0  0  0  0
 27 29  1  0  0  0  0
 28 30  1  0  0  0  0
 29 30  2  0  0  0  0
 31 32  1  0  0  0  0
 31 33  2  0  0  0  0
 32 34  2  0  0  0  0
 33 35  1  0  0  0  0
 34 36  1  0  0  0  0
 35 36  2  0  0  0  0
 37 38  1  0  0  0  0
 37 39  2  0  0  0  0
 38 40  2  0  0  0  0
 39 41  1  0  0  0  0
 40 42  1  0  0  0  0
 41 42  2  0  0  0  0
 43 44  1  0  0  0  0
 43 45  1  0  0  0  0
 43 46  1  0  0  0  0
 43 47  1  0  0  0  0
 40 47  1  0  0  0  0
 32 47  1  0  0  0  0
 25 47  1  0  0  0  0
 21 46  1  0  0  0  0
 15 46  1  0  0  0  0
 11 46  1  0  0  0  0
  5 43  1  0  0  0  0
 48 49  2  0  0  0  0
 49 50  2  0  0  0  0
 43 48  1  0  0  0  0
M  END
> <NMREDATA_VERSION>
1.1

> <NMREDATA_LEVEL>
0

> <NMREDATA_SOLVENT>
toluene-d8

> <NMREDATA_TEMPERATURE>
300

> <NMREDATA_FORMULA>
C42H40N2OP2Rh

> <NMREDATA_SMILES>
O=C=N[RhH2](P(c1ccccc1)(c1ccccc1)c1ccccc1)(P(c1ccccc1)(c1ccccc1)c1ccccc1)N1=CC=CC=C1

> <NMREDATA_ASSIGNMENT>
Rh43, 537.00, 43

> <NMREDATA_1D_103Rh>
537.00, L=Rh43

$$$$

  ACD/LABS03282419372D

 50 56  0  0  0  0  0  0  0  0  1 V2000
   13.5206  -17.3740    0.0000 C    0  0  0  0  0  0  0  0  0  0  0  0
   14.7758  -17.8274    0.0000 C    0  0  0  0  0  0  0  0  0  0  0  0
   13.2872  -16.0647    0.0000 C    0  0  0  0  0  0  0  0  0  0  0  0
   15.7930  -16.9634    0.0000 C    0  0  0  0  0  0  0  0  0  0  0  0
   14.3040  -15.2009    0.0000 N    0  0  0  0  0  0  0  0  0  0  0  0
   15.5595  -15.6541    0.0000 C    0  0  0  0  0  0  0  0  0  0  0  0
   11.8366   -7.9819    0.0000 C    0  0  0  0  0  0  0  0  0  0  0  0
   12.8534   -7.1181    0.0000 C    0  0  0  0  0  0  0  0  0  0  0  0
   12.0701   -9.2912    0.0000 C    0  0  0  0  0  0  0  0  0  0  0  0
   14.1010   -7.5759    0.0000 C    0  0  0  0  0  0  0  0  0  0  0  0
   13.3207   -9.7366    0.0000 C    0  0  0  0  0  0  0  0  0  0  0  0
   14.3424   -8.8807    0.0000 C    0  0  0  0  0  0  0  0  0  0  0  0
   11.3934  -10.2656    0.0000 C    0  0  0  0  0  0  0  0  0  0  0  0
   10.0764  -10.5035    0.0000 C    0  0  0  0  0  0  0  0  0  0  0  0
   12.2494  -11.2874    0.0000 C    0  0  0  0  0  0  0  0  0  0  0  0
    9.6307  -11.7543    0.0000 C    0  0  0  0  0  0  0  0  0  0  0  0
   11.8039  -12.5380    0.0000 C    0  0  0  0  0  0  0  0  0  0  0  0
   10.4870  -12.7758    0.0000 C    0  0  0  0  0  0  0  0  0  0  0  0
   15.3133   -9.5695    0.0000 C    0  0  0  0  0  0  0  0  0  0  0  0
   16.6180   -9.3281    0.0000 C    0  0  0  0  0  0  0  0  0  0  0  0
   14.8635  -10.8125    0.0000 C    0  0  0  0  0  0  0  0  0  0  0  0
   17.4816  -10.3455    0.0000 C    0  0  0  0  0  0  0  0  0  0  0  0
   15.7226  -11.8214    0.0000 C    0  0  0  0  0  0  0  0  0  0  0  0
   17.0240  -11.5925    0.0000 C    0  0  0  0  0  0  0  0  0  0  0  0
   19.9249   -9.5389    0.0000 C    0  0  0  0  0  0  0  0  0  0  0  0
   20.9451  -10.3834    0.0000 C    0  0  0  0  0  0  0  0  0  0  0  0
   20.1449   -8.2343    0.0000 C    0  0  0  0  0  0  0  0  0  0  0  0
   22.1931   -9.9193    0.0000 C    0  0  0  0  0  0  0  0  0  0  0  0
   21.3923   -7.7700    0.0000 C    0  0  0  0  0  0  0  0  0  0  0  0
   22.4201   -8.6101    0.0000 C    0  0  0  0  0  0  0  0  0  0  0  0
   17.1775   -8.2575    0.0000 C    0  0  0  0  0  0  0  0  0  0  0  0
   18.4361   -8.6983    0.0000 C    0  0  0  0  0  0  0  0  0  0  0  0
   16.9365   -6.9526    0.0000 C    0  0  0  0  0  0  0  0  0  0  0  0
   19.4455   -7.8394    0.0000 C    0  0  0  0  0  0  0  0  0  0  0  0
   17.9489   -6.0812    0.0000 C    0  0  0  0  0  0  0  0  0  0  0  0
   19.2000   -6.5268    0.0000 C    0  0  0  0  0  0  0  0  0  0  0  0
   21.4593  -14.1836    0.0000 C    0  0  0  0  0  0  0  0  0  0  0  0
   20.9993  -12.9434    0.0000 C    0  0  0  0  0  0  0  0  0  0  0  0
   20.6113  -15.2160    0.0000 C    0  0  0  0  0  0  0  0  0  0  0  0
   19.6827  -12.7202    0.0000 C    0  0  0  0  0  0  0  0  0  0  0  0
   19.3023  -14.9884    0.0000 C    0  0  0  0  0  0  0  0  0  0  0  0
   18.8378  -13.7406    0.0000 C    0  0  0  0  0  0  0  0  0  0  0  0
   14.0705  -13.8916    0.0000 Rh   0  0  0  0  0  0  0  0  0  0  0  0
   13.0534  -14.7555    0.0000 H    0  0  0  0  0  0  0  0  0  0  0  0
   15.3181  -14.3493    0.0000 H    0  0  0  0  0  0  0  0  0  0  0  0
   13.5585  -11.0536    0.0000 P    0  0  0  0  0  0  0  0  0  0  0  0
   18.6817  -10.0113    0.0000 P    0  0  0  0  0  0  0  0  0  0  0  0
   12.8185  -13.4429    0.0000 N    0  0  0  0  0  0  0  0  0  0  0  0
   11.8039  -14.3029    0.0000 C    0  0  0  0  0  0  0  0  0  0  0  0
   10.7894  -15.1629    0.0000 S    0  0  0  0  0  0  0  0  0  0  0  0
  1  2  1  0  0  0  0
  1  3  2  0  0  0  0
  2  4  2  0  0  0  0
  3  5  1  0  0  0  0
  4  6  1  0  0  0  0
  5  6  2  0  0  0  0
  7  8  1  0  0  0  0
  7  9  2  0  0  0  0
  8 10  2  0  0  0  0
  9 11  1  0  0  0  0
 10 12  1  0  0  0  0
 11 12  2  0  0  0  0
 13 14  1  0  0  0  0
 13 15  2  0  0  0  0
 14 16  2  0  0  0  0
 15 17  1  0  0  0  0
 16 18  1  0  0  0  0
 17 18  2  0  0  0  0
 19 20  1  0  0  0  0
 19 21  2  0  0  0  0
 20 22  2  0  0  0  0
 21 23  1  0  0  0  0
 22 24  1  0  0  0  0
 23 24  2  0  0  0  0
 25 26  1  0  0  0  0
 25 27  2  0  0  0  0
 26 28  2  0  0  0  0
 27 29  1  0  0  0  0
 28 30  1  0  0  0  0
 29 30  2  0  0  0  0
 31 32  1  0  0  0  0
 31 33  2  0  0  0  0
 32 34  2  0  0  0  0
 33 35  1  0  0  0  0
 34 36  1  0  0  0  0
 35 36  2  0  0  0  0
 37 38  1  0  0  0  0
 37 39  2  0  0  0  0
 38 40  2  0  0  0  0
 39 41  1  0  0  0  0
 40 42  1  0  0  0  0
 41 42  2  0  0  0  0
 43 44  1  0  0  0  0
 43 45  1  0  0  0  0
 43 46  1  0  0  0  0
 43 47  1  0  0  0  0
 40 47  1  0  0  0  0
 32 47  1  0  0  0  0
 25 47  1  0  0  0  0
 21 46  1  0  0  0  0
 15 46  1  0  0  0  0
 11 46  1  0  0  0  0
  5 43  1  0  0  0  0
 48 49  2  0  0  0  0
 49 50  2  0  0  0  0
 43 48  1  0  0  0  0
M  END
> <NMREDATA_VERSION>
1.1

> <NMREDATA_LEVEL>
0

> <NMREDATA_SOLVENT>
toluene-d8

> <NMREDATA_TEMPERATURE>
300

> <NMREDATA_FORMULA>
C42H40N2P2RhS

> <NMREDATA_SMILES>
S=C=N[RhH2](P(c1ccccc1)(c1ccccc1)c1ccccc1)(P(c1ccccc1)(c1ccccc1)c1ccccc1)N1=CC=CC=C1

> <NMREDATA_ASSIGNMENT>
Rh43, 511.00, 43

> <NMREDATA_1D_103Rh>
511.00, L=Rh43

$$$$

  ACD/LABS03282419382D

 52 58  0  0  0  0  0  0  0  0  1 V2000
   13.5206  -17.3740    0.0000 C    0  0  0  0  0  0  0  0  0  0  0  0
   14.7758  -17.8274    0.0000 C    0  0  0  0  0  0  0  0  0  0  0  0
   13.2872  -16.0647    0.0000 C    0  0  0  0  0  0  0  0  0  0  0  0
   15.7930  -16.9634    0.0000 C    0  0  0  0  0  0  0  0  0  0  0  0
   14.3040  -15.2009    0.0000 N    0  0  0  0  0  0  0  0  0  0  0  0
   15.5595  -15.6541    0.0000 C    0  0  0  0  0  0  0  0  0  0  0  0
   11.8366   -7.9819    0.0000 C    0  0  0  0  0  0  0  0  0  0  0  0
   12.8534   -7.1181    0.0000 C    0  0  0  0  0  0  0  0  0  0  0  0
   12.0701   -9.2912    0.0000 C    0  0  0  0  0  0  0  0  0  0  0  0
   14.1010   -7.5759    0.0000 C    0  0  0  0  0  0  0  0  0  0  0  0
   13.3207   -9.7366    0.0000 C    0  0  0  0  0  0  0  0  0  0  0  0
   14.3424   -8.8807    0.0000 C    0  0  0  0  0  0  0  0  0  0  0  0
   11.3934  -10.2656    0.0000 C    0  0  0  0  0  0  0  0  0  0  0  0
   10.0764  -10.5035    0.0000 C    0  0  0  0  0  0  0  0  0  0  0  0
   12.2494  -11.2874    0.0000 C    0  0  0  0  0  0  0  0  0  0  0  0
    9.6307  -11.7543    0.0000 C    0  0  0  0  0  0  0  0  0  0  0  0
   11.8039  -12.5380    0.0000 C    0  0  0  0  0  0  0  0  0  0  0  0
   10.4870  -12.7758    0.0000 C    0  0  0  0  0  0  0  0  0  0  0  0
   15.3133   -9.5695    0.0000 C    0  0  0  0  0  0  0  0  0  0  0  0
   16.6180   -9.3281    0.0000 C    0  0  0  0  0  0  0  0  0  0  0  0
   14.8635  -10.8125    0.0000 C    0  0  0  0  0  0  0  0  0  0  0  0
   17.4816  -10.3455    0.0000 C    0  0  0  0  0  0  0  0  0  0  0  0
   15.7226  -11.8214    0.0000 C    0  0  0  0  0  0  0  0  0  0  0  0
   17.0240  -11.5925    0.0000 C    0  0  0  0  0  0  0  0  0  0  0  0
   19.9249   -9.5389    0.0000 C    0  0  0  0  0  0  0  0  0  0  0  0
   20.9451  -10.3834    0.0000 C    0  0  0  0  0  0  0  0  0  0  0  0
   20.1449   -8.2343    0.0000 C    0  0  0  0  0  0  0  0  0  0  0  0
   22.1931   -9.9193    0.0000 C    0  0  0  0  0  0  0  0  0  0  0  0
   21.3923   -7.7700    0.0000 C    0  0  0  0  0  0  0  0  0  0  0  0
   22.4201   -8.6101    0.0000 C    0  0  0  0  0  0  0  0  0  0  0  0
   17.1775   -8.2575    0.0000 C    0  0  0  0  0  0  0  0  0  0  0  0
   18.4361   -8.6983    0.0000 C    0  0  0  0  0  0  0  0  0  0  0  0
   16.9365   -6.9526    0.0000 C    0  0  0  0  0  0  0  0  0  0  0  0
   19.4455   -7.8394    0.0000 C    0  0  0  0  0  0  0  0  0  0  0  0
   17.9489   -6.0812    0.0000 C    0  0  0  0  0  0  0  0  0  0  0  0
   19.2000   -6.5268    0.0000 C    0  0  0  0  0  0  0  0  0  0  0  0
   21.4593  -14.1836    0.0000 C    0  0  0  0  0  0  0  0  0  0  0  0
   20.9993  -12.9434    0.0000 C    0  0  0  0  0  0  0  0  0  0  0  0
   20.6113  -15.2160    0.0000 C    0  0  0  0  0  0  0  0  0  0  0  0
   19.6827  -12.7202    0.0000 C    0  0  0  0  0  0  0  0  0  0  0  0
   19.3023  -14.9884    0.0000 C    0  0  0  0  0  0  0  0  0  0  0  0
   18.8378  -13.7406    0.0000 C    0  0  0  0  0  0  0  0  0  0  0  0
   14.0705  -13.8916    0.0000 Rh   0  0  0  0  0  0  0  0  0  0  0  0
   13.0534  -14.7555    0.0000 H    0  0  0  0  0  0  0  0  0  0  0  0
   15.3181  -14.3493    0.0000 H    0  0  0  0  0  0  0  0  0  0  0  0
   13.5585  -11.0536    0.0000 P    0  0  0  0  0  0  0  0  0  0  0  0
   18.6817  -10.0113    0.0000 P    0  0  0  0  0  0  0  0  0  0  0  0
   12.8185  -13.4429    0.0000 N    0  0  0  0  0  0  0  0  0  0  0  0
   12.5810  -12.1343    0.0000 C    0  0  0  0  0  0  0  0  0  0  0  0
   12.3436  -10.8257    0.0000 N    0  0  0  0  0  0  0  0  0  0  0  0
   11.8039  -14.3029    0.0000 C    0  0  0  0  0  0  0  0  0  0  0  0
   10.7893  -15.1628    0.0000 N    0  0  0  0  0  0  0  0  0  0  0  0
  1  2  1  0  0  0  0
  1  3  2  0  0  0  0
  2  4  2  0  0  0  0
  3  5  1  0  0  0  0
  4  6  1  0  0  0  0
  5  6  2  0  0  0  0
  7  8  1  0  0  0  0
  7  9  2  0  0  0  0
  8 10  2  0  0  0  0
  9 11  1  0  0  0  0
 10 12  1  0  0  0  0
 11 12  2  0  0  0  0
 13 14  1  0  0  0  0
 13 15  2  0  0  0  0
 14 16  2  0  0  0  0
 15 17  1  0  0  0  0
 16 18  1  0  0  0  0
 17 18  2  0  0  0  0
 19 20  1  0  0  0  0
 19 21  2  0  0  0  0
 20 22  2  0  0  0  0
 21 23  1  0  0  0  0
 22 24  1  0  0  0  0
 23 24  2  0  0  0  0
 25 26  1  0  0  0  0
 25 27  2  0  0  0  0
 26 28  2  0  0  0  0
 27 29  1  0  0  0  0
 28 30  1  0  0  0  0
 29 30  2  0  0  0  0
 31 32  1  0  0  0  0
 31 33  2  0  0  0  0
 32 34  2  0  0  0  0
 33 35  1  0  0  0  0
 34 36  1  0  0  0  0
 35 36  2  0  0  0  0
 37 38  1  0  0  0  0
 37 39  2  0  0  0  0
 38 40  2  0  0  0  0
 39 41  1  0  0  0  0
 40 42  1  0  0  0  0
 41 42  2  0  0  0  0
 43 44  1  0  0  0  0
 43 45  1  0  0  0  0
 43 46  1  0  0  0  0
 43 47  1  0  0  0  0
 40 47  1  0  0  0  0
 32 47  1  0  0  0  0
 25 47  1  0  0  0  0
 21 46  1  0  0  0  0
 15 46  1  0  0  0  0
 11 46  1  0  0  0  0
  5 43  1  0  0  0  0
 43 48  1  0  0  0  0
 49 50  3  0  0  0  0
 48 49  1  0  0  0  0
 51 52  3  0  0  0  0
 48 51  1  0  0  0  0
M  END
> <NMREDATA_VERSION>
1.1

> <NMREDATA_LEVEL>
0

> <NMREDATA_SOLVENT>
toluene-d8

> <NMREDATA_TEMPERATURE>
300

> <NMREDATA_FORMULA>
C43H40N4P2Rh

> <NMREDATA_SMILES>
N#CN([RhH2](P(c1ccccc1)(c1ccccc1)c1ccccc1)(P(c1ccccc1)(c1ccccc1)c1ccccc1)N1=CC=CC=C1)C#N

> <NMREDATA_ASSIGNMENT>
Rh43, 497.00, 43

> <NMREDATA_1D_103Rh>
497.00, L=Rh43

$$$$

  ACD/LABS03282419392D

 68 77  0  0  0  0  0  0  0  0  1 V2000
   13.2043  -21.2972    0.0000 C    0  0  0  0  0  0  0  0  0  0  0  0
   12.5385  -22.4491    0.0000 C    0  0  0  0  0  0  0  0  0  0  0  0
   14.5343  -21.2968    0.0000 C    0  0  0  0  0  0  0  0  0  0  0  0
   13.2034  -23.6007    0.0000 C    0  0  0  0  0  0  0  0  0  0  0  0
   15.1992  -22.4484    0.0000 C    0  0  0  0  0  0  0  0  0  0  0  0
   14.5339  -23.6000    0.0000 C    0  0  0  0  0  0  0  0  0  0  0  0
   17.5034  -20.1454    0.0000 C    0  0  0  0  0  0  0  0  0  0  0  0
   16.3518  -20.8103    0.0000 C    0  0  0  0  0  0  0  0  0  0  0  0
   18.6552  -20.8112    0.0000 C    0  0  0  0  0  0  0  0  0  0  0  0
   16.3524  -22.1407    0.0000 C    0  0  0  0  0  0  0  0  0  0  0  0
   18.6557  -22.1412    0.0000 C    0  0  0  0  0  0  0  0  0  0  0  0
   17.5040  -22.8061    0.0000 C    0  0  0  0  0  0  0  0  0  0  0  0
   11.7495  -19.4862    0.0000 C    0  0  0  0  0  0  0  0  0  0  0  0
   12.9011  -20.1516    0.0000 C    0  0  0  0  0  0  0  0  0  0  0  0
   11.7488  -18.1558    0.0000 C    0  0  0  0  0  0  0  0  0  0  0  0
   14.0527  -19.4867    0.0000 C    0  0  0  0  0  0  0  0  0  0  0  0
   12.9004  -17.4909    0.0000 C    0  0  0  0  0  0  0  0  0  0  0  0
   14.0523  -18.1567    0.0000 C    0  0  0  0  0  0  0  0  0  0  0  0
   22.2409  -15.9776    0.0000 C    0  0  0  0  0  0  0  0  0  0  0  0
   23.0924  -14.9536    0.0000 C    0  0  0  0  0  0  0  0  0  0  0  0
   20.9324  -15.7503    0.0000 C    0  0  0  0  0  0  0  0  0  0  0  0
   22.6408  -13.7097    0.0000 C    0  0  0  0  0  0  0  0  0  0  0  0
   20.4759  -14.4992    0.0000 N    0  0  0  0  0  0  0  0  0  0  0  0
   21.3278  -13.4749    0.0000 C    0  0  0  0  0  0  0  0  0  0  0  0
   14.3996  -14.6097    0.0000 C    0  0  0  0  0  0  0  0  0  0  0  0
   13.9432  -13.3586    0.0000 C    0  0  0  0  0  0  0  0  0  0  0  0
   15.7031  -14.8293    0.0000 C    0  0  0  0  0  0  0  0  0  0  0  0
   14.7875  -12.3387    0.0000 C    0  0  0  0  0  0  0  0  0  0  0  0
   16.5516  -13.8176    0.0000 C    0  0  0  0  0  0  0  0  0  0  0  0
   16.0952  -12.5665    0.0000 C    0  0  0  0  0  0  0  0  0  0  0  0
   17.0627  -11.8847    0.0000 C    0  0  0  0  0  0  0  0  0  0  0  0
   17.2979  -10.5722    0.0000 C    0  0  0  0  0  0  0  0  0  0  0  0
   18.0870  -12.7366    0.0000 C    0  0  0  0  0  0  0  0  0  0  0  0
   18.5414  -10.1201    0.0000 C    0  0  0  0  0  0  0  0  0  0  0  0
   19.3335  -12.2722    0.0000 C    0  0  0  0  0  0  0  0  0  0  0  0
   19.5657  -10.9720    0.0000 C    0  0  0  0  0  0  0  0  0  0  0  0
   16.3892  -15.8044    0.0000 C    0  0  0  0  0  0  0  0  0  0  0  0
   16.1617  -17.1125    0.0000 C    0  0  0  0  0  0  0  0  0  0  0  0
   17.6280  -15.3450    0.0000 C    0  0  0  0  0  0  0  0  0  0  0  0
   17.1784  -17.9688    0.0000 C    0  0  0  0  0  0  0  0  0  0  0  0
   18.6442  -16.2016    0.0000 C    0  0  0  0  0  0  0  0  0  0  0  0
   18.4171  -17.5095    0.0000 C    0  0  0  0  0  0  0  0  0  0  0  0
   16.4321   -7.4590    0.0000 C    0  0  0  0  0  0  0  0  0  0  0  0
   15.1014   -7.4593    0.0000 C    0  0  0  0  0  0  0  0  0  0  0  0
   17.0972   -6.3070    0.0000 C    0  0  0  0  0  0  0  0  0  0  0  0
   14.4368   -6.3081    0.0000 C    0  0  0  0  0  0  0  0  0  0  0  0
   16.4326   -5.1558    0.0000 C    0  0  0  0  0  0  0  0  0  0  0  0
   15.1026   -5.1563    0.0000 C    0  0  0  0  0  0  0  0  0  0  0  0
   19.4002   -8.6111    0.0000 C    0  0  0  0  0  0  0  0  0  0  0  0
   18.2479   -7.9456    0.0000 C    0  0  0  0  0  0  0  0  0  0  0  0
   20.5514   -7.9465    0.0000 C    0  0  0  0  0  0  0  0  0  0  0  0
   18.2480   -6.6153    0.0000 C    0  0  0  0  0  0  0  0  0  0  0  0
   20.5512   -6.6158    0.0000 C    0  0  0  0  0  0  0  0  0  0  0  0
   19.3991   -5.9507    0.0000 C    0  0  0  0  0  0  0  0  0  0  0  0
   13.6419   -9.2746    0.0000 C    0  0  0  0  0  0  0  0  0  0  0  0
   14.7935   -8.6097    0.0000 C    0  0  0  0  0  0  0  0  0  0  0  0
   13.6504  -10.6000    0.0000 C    0  0  0  0  0  0  0  0  0  0  0  0
   15.9451   -9.2751    0.0000 C    0  0  0  0  0  0  0  0  0  0  0  0
   14.7942  -11.2704    0.0000 C    0  0  0  0  0  0  0  0  0  0  0  0
   15.9458  -10.6056    0.0000 C    0  0  0  0  0  0  0  0  0  0  0  0
   19.1678  -14.2716    0.0000 Rh   0  0  0  0  0  0  0  0  0  0  0  0
   19.6198  -15.5152    0.0000 H    0  0  0  0  0  0  0  0  0  0  0  0
   20.0199  -13.2477    0.0000 H    0  0  0  0  0  0  0  0  0  0  0  0
   17.8548  -14.0367    0.0000 P    0  0  0  0  0  0  0  0  0  0  0  0
   17.0968   -8.6102    0.0000 P    0  0  0  0  0  0  0  0  0  0  0  0
   17.3154  -16.4875    0.0000 N    0  0  0  0  0  0  0  0  0  0  0  0
   15.8657  -18.9926    0.0000 C    0  0  0  0  0  0  0  0  0  0  0  0
   15.2002  -20.1449    0.0000 B    0  0  0  0  0  0  0  0  0  0  0  0
  1  2  1  0  0  0  0
  1  3  2  0  0  0  0
  2  4  2  0  0  0  0
  3  5  1  0  0  0  0
  4  6  1  0  0  0  0
  5  6  2  0  0  0  0
  7  8  1  0  0  0  0
  7  9  2  0  0  0  0
  8 10  2  0  0  0  0
  9 11  1  0  0  0  0
 10 12  1  0  0  0  0
 11 12  2  0  0  0  0
 13 14  1  0  0  0  0
 13 15  2  0  0  0  0
 14 16  2  0  0  0  0
 15 17  1  0  0  0  0
 16 18  1  0  0  0  0
 17 18  2  0  0  0  0
 19 20  1  0  0  0  0
 19 21  2  0  0  0  0
 20 22  2  0  0  0  0
 21 23  1  0  0  0  0
 22 24  1  0  0  0  0
 23 24  2  0  0  0  0
 25 26  1  0  0  0  0
 25 27  2  0  0  0  0
 26 28  2  0  0  0  0
 27 29  1  0  0  0  0
 28 30  1  0  0  0  0
 29 30  2  0  0  0  0
 31 32  1  0  0  0  0
 31 33  2  0  0  0  0
 32 34  2  0  0  0  0
 33 35  1  0  0  0  0
 34 36  1  0  0  0  0
 35 36  2  0  0  0  0
 37 38  1  0  0  0  0
 37 39  2  0  0  0  0
 38 40  2  0  0  0  0
 39 41  1  0  0  0  0
 40 42  1  0  0  0  0
 41 42  2  0  0  0  0
 43 44  1  0  0  0  0
 43 45  2  0  0  0  0
 44 46  2  0  0  0  0
 45 47  1  0  0  0  0
 46 48  1  0  0  0  0
 47 48  2  0  0  0  0
 49 50  1  0  0  0  0
 49 51  2  0  0  0  0
 50 52  2  0  0  0  0
 51 53  1  0  0  0  0
 52 54  1  0  0  0  0
 53 54  2  0  0  0  0
 55 56  1  0  0  0  0
 55 57  2  0  0  0  0
 56 58  2  0  0  0  0
 57 59  1  0  0  0  0
 58 60  1  0  0  0  0
 59 60  2  0  0  0  0
 61 62  1  0  0  0  0
 61 63  1  0  0  0  0
 61 64  1  0  0  0  0
 61 65  1  0  0  0  0
 58 65  1  0  0  0  0
 50 65  1  0  0  0  0
 43 65  1  0  0  0  0
 39 64  1  0  0  0  0
 33 64  1  0  0  0  0
 29 64  1  0  0  0  0
 23 61  1  0  0  0  0
 66 67  3  0  0  0  0
 61 66  1  0  0  0  0
 67 68  1  0  0  0  0
 16 68  1  0  0  0  0
  8 68  1  0  0  0  0
  3 68  1  0  0  0  0
M  END
> <NMREDATA_VERSION>
1.1

> <NMREDATA_LEVEL>
0

> <NMREDATA_SOLVENT>
toluene-d8

> <NMREDATA_TEMPERATURE>
300

> <NMREDATA_FORMULA>
C60H56BN2P2Rh

> <NMREDATA_SMILES>
c1ccc(cc1)[B](c1ccccc1)(c1ccccc1)C#N[RhH2](P(c1ccccc1)(c1ccccc1)c1ccccc1)(P(c1ccccc1)(c1ccccc1)c1ccccc1)N1=CC=CC=C1

> <NMREDATA_ASSIGNMENT>
Rh61, 441.00, 61

> <NMREDATA_1D_103Rh>
441.00, L=Rh61

$$$$

  ACD/LABS03282419402D

 54 60  0  0  0  0  0  0  0  0  2 V2000
   13.5206  -17.3740    0.0000 C    0  0  0  0  0  0  0  0  0  0  0  0
   14.7758  -17.8274    0.0000 C    0  0  0  0  0  0  0  0  0  0  0  0
   13.2872  -16.0647    0.0000 C    0  0  0  0  0  0  0  0  0  0  0  0
   15.7930  -16.9634    0.0000 C    0  0  0  0  0  0  0  0  0  0  0  0
   14.3040  -15.2009    0.0000 N    0  0  0  0  0  0  0  0  0  0  0  0
   15.5595  -15.6541    0.0000 C    0  0  0  0  0  0  0  0  0  0  0  0
   11.8366   -7.9819    0.0000 C    0  0  0  0  0  0  0  0  0  0  0  0
   12.8534   -7.1181    0.0000 C    0  0  0  0  0  0  0  0  0  0  0  0
   12.0701   -9.2912    0.0000 C    0  0  0  0  0  0  0  0  0  0  0  0
   14.1010   -7.5759    0.0000 C    0  0  0  0  0  0  0  0  0  0  0  0
   13.3207   -9.7366    0.0000 C    0  0  0  0  0  0  0  0  0  0  0  0
   14.3424   -8.8807    0.0000 C    0  0  0  0  0  0  0  0  0  0  0  0
   11.3934  -10.2656    0.0000 C    0  0  0  0  0  0  0  0  0  0  0  0
   10.0764  -10.5035    0.0000 C    0  0  0  0  0  0  0  0  0  0  0  0
   12.2494  -11.2874    0.0000 C    0  0  0  0  0  0  0  0  0  0  0  0
    9.6307  -11.7543    0.0000 C    0  0  0  0  0  0  0  0  0  0  0  0
   11.8039  -12.5380    0.0000 C    0  0  0  0  0  0  0  0  0  0  0  0
   10.4870  -12.7758    0.0000 C    0  0  0  0  0  0  0  0  0  0  0  0
   15.3133   -9.5695    0.0000 C    0  0  0  0  0  0  0  0  0  0  0  0
   16.6180   -9.3281    0.0000 C    0  0  0  0  0  0  0  0  0  0  0  0
   14.8635  -10.8125    0.0000 C    0  0  0  0  0  0  0  0  0  0  0  0
   17.4816  -10.3455    0.0000 C    0  0  0  0  0  0  0  0  0  0  0  0
   15.7226  -11.8214    0.0000 C    0  0  0  0  0  0  0  0  0  0  0  0
   17.0240  -11.5925    0.0000 C    0  0  0  0  0  0  0  0  0  0  0  0
   19.9249   -9.5389    0.0000 C    0  0  0  0  0  0  0  0  0  0  0  0
   20.9451  -10.3834    0.0000 C    0  0  0  0  0  0  0  0  0  0  0  0
   20.1449   -8.2343    0.0000 C    0  0  0  0  0  0  0  0  0  0  0  0
   22.1931   -9.9193    0.0000 C    0  0  0  0  0  0  0  0  0  0  0  0
   21.3923   -7.7700    0.0000 C    0  0  0  0  0  0  0  0  0  0  0  0
   22.4201   -8.6101    0.0000 C    0  0  0  0  0  0  0  0  0  0  0  0
   17.1775   -8.2575    0.0000 C    0  0  0  0  0  0  0  0  0  0  0  0
   18.4361   -8.6983    0.0000 C    0  0  0  0  0  0  0  0  0  0  0  0
   16.9365   -6.9526    0.0000 C    0  0  0  0  0  0  0  0  0  0  0  0
   19.4455   -7.8394    0.0000 C    0  0  0  0  0  0  0  0  0  0  0  0
   17.9489   -6.0812    0.0000 C    0  0  0  0  0  0  0  0  0  0  0  0
   19.2000   -6.5268    0.0000 C    0  0  0  0  0  0  0  0  0  0  0  0
   21.4593  -14.1836    0.0000 C    0  0  0  0  0  0  0  0  0  0  0  0
   20.9993  -12.9434    0.0000 C    0  0  0  0  0  0  0  0  0  0  0  0
   20.6113  -15.2160    0.0000 C    0  0  0  0  0  0  0  0  0  0  0  0
   19.6827  -12.7202    0.0000 C    0  0  0  0  0  0  0  0  0  0  0  0
   19.3023  -14.9884    0.0000 C    0  0  0  0  0  0  0  0  0  0  0  0
   18.8378  -13.7406    0.0000 C    0  0  0  0  0  0  0  0  0  0  0  0
   14.0705  -13.8916    0.0000 Rh   0  0  0  0  0  0  0  0  0  0  0  0
   13.0534  -14.7555    0.0000 H    0  0  0  0  0  0  0  0  0  0  0  0
   15.3181  -14.3493    0.0000 H    0  0  0  0  0  0  0  0  0  0  0  0
   13.5585  -11.0536    0.0000 P    0  0  0  0  0  0  0  0  0  0  0  0
   18.6817  -10.0113    0.0000 P    0  0  0  0  0  0  0  0  0  0  0  0
   15.0123  -19.1362    0.0000 N    0  3  0  0  0  0  0  0  0  0  0  0
   16.2640  -19.5858    0.0000 C    0  0  0  0  0  0  0  0  0  0  0  0
   13.9970  -19.9955    0.0000 C    0  0  0  0  0  0  0  0  0  0  0  0
   16.5004  -20.8947    0.0000 C    0  0  0  0  0  0  0  0  0  0  0  0
   14.2335  -21.3042    0.0000 C    0  0  0  0  0  0  0  0  0  0  0  0
   15.4852  -21.7539    0.0000 C    0  0  0  0  0  0  0  0  0  0  0  0
   25.4463  -13.7647    0.0000 Cl   0  5  0  0  0  0  0  0  0  0  0  0
  1  2  1  0  0  0  0
  1  3  2  0  0  0  0
  2  4  2  0  0  0  0
  3  5  1  0  0  0  0
  4  6  1  0  0  0  0
  5  6  2  0  0  0  0
  7  8  1  0  0  0  0
  7  9  2  0  0  0  0
  8 10  2  0  0  0  0
  9 11  1  0  0  0  0
 10 12  1  0  0  0  0
 11 12  2  0  0  0  0
 13 14  1  0  0  0  0
 13 15  2  0  0  0  0
 14 16  2  0  0  0  0
 15 17  1  0  0  0  0
 16 18  1  0  0  0  0
 17 18  2  0  0  0  0
 19 20  1  0  0  0  0
 19 21  2  0  0  0  0
 20 22  2  0  0  0  0
 21 23  1  0  0  0  0
 22 24  1  0  0  0  0
 23 24  2  0  0  0  0
 25 26  1  0  0  0  0
 25 27  2  0  0  0  0
 26 28  2  0  0  0  0
 27 29  1  0  0  0  0
 28 30  1  0  0  0  0
 29 30  2  0  0  0  0
 31 32  1  0  0  0  0
 31 33  2  0  0  0  0
 32 34  2  0  0  0  0
 33 35  1  0  0  0  0
 34 36  1  0  0  0  0
 35 36  2  0  0  0  0
 37 38  1  0  0  0  0
 37 39  2  0  0  0  0
 38 40  2  0  0  0  0
 39 41  1  0  0  0  0
 40 42  1  0  0  0  0
 41 42  2  0  0  0  0
 43 44  1  0  0  0  0
 43 45  1  0  0  0  0
 43 46  1  0  0  0  0
 43 47  1  0  0  0  0
 40 47  1  0  0  0  0
 32 47  1  0  0  0  0
 25 47  1  0  0  0  0
 21 46  1  0  0  0  0
 15 46  1  0  0  0  0
 11 46  1  0  0  0  0
  5 43  1  0  0  0  0
 48 49  1  0  0  0  0
 48 50  2  0  0  0  0
 49 51  2  0  0  0  0
 50 52  1  0  0  0  0
 51 53  1  0  0  0  0
 52 53  2  0  0  0  0
  2 48  1  0  0  0  0
M  END
> <NMREDATA_VERSION>
1.1

> <NMREDATA_LEVEL>
0

> <NMREDATA_SOLVENT>
CD2Cl2

> <NMREDATA_TEMPERATURE>
298

> <NMREDATA_FORMULA>
C46H46ClN2P2Rh

> <NMREDATA_SMILES>
C1=CC=N(C=C1)C1=CC=N(C=C1)[RhH2](P(c1ccccc1)(c1ccccc1)c1ccccc1)P(c1ccccc1)(c1ccccc1)c1ccccc1.Cl

> <NMREDATA_ASSIGNMENT>
Rh43, 1794.00, 43

> <NMREDATA_1D_103Rh>
1794.00, L=Rh43

$$$$

  ACD/LABS03282419412D

 51 57  0  0  0  0  0  0  0  0  1 V2000
   11.9267   -7.2484    0.0000 C    0  0  0  0  0  0  0  0  0  0  0  0
   13.0786   -6.5836    0.0000 C    0  0  0  0  0  0  0  0  0  0  0  0
   11.9267   -8.5775    0.0000 C    0  0  0  0  0  0  0  0  0  0  0  0
   14.2310   -7.2484    0.0000 C    0  0  0  0  0  0  0  0  0  0  0  0
   13.0786   -9.2423    0.0000 C    0  0  0  0  0  0  0  0  0  0  0  0
   14.2310   -8.5775    0.0000 N    0  0  0  0  0  0  0  0  0  0  0  0
   15.0198  -14.9496    0.0000 C    0  0  0  0  0  0  0  0  0  0  0  0
   14.0005  -15.8008    0.0000 C    0  0  0  0  0  0  0  0  0  0  0  0
   14.7893  -13.6379    0.0000 C    0  0  0  0  0  0  0  0  0  0  0  0
   12.7508  -15.3398    0.0000 C    0  0  0  0  0  0  0  0  0  0  0  0
   13.5396  -13.1774    0.0000 C    0  0  0  0  0  0  0  0  0  0  0  0
   12.5203  -14.0369    0.0000 C    0  0  0  0  0  0  0  0  0  0  0  0
   10.3487  -14.1608    0.0000 C    0  0  0  0  0  0  0  0  0  0  0  0
    9.0995  -14.6130    0.0000 C    0  0  0  0  0  0  0  0  0  0  0  0
   10.5884  -12.8491    0.0000 C    0  0  0  0  0  0  0  0  0  0  0  0
    8.0802  -13.7531    0.0000 C    0  0  0  0  0  0  0  0  0  0  0  0
    9.5691  -11.9984    0.0000 C    0  0  0  0  0  0  0  0  0  0  0  0
    8.3194  -12.4414    0.0000 C    0  0  0  0  0  0  0  0  0  0  0  0
   15.4624  -12.6632    0.0000 C    0  0  0  0  0  0  0  0  0  0  0  0
   16.7741  -12.4327    0.0000 C    0  0  0  0  0  0  0  0  0  0  0  0
   14.6208  -11.6531    0.0000 C    0  0  0  0  0  0  0  0  0  0  0  0
   17.2263  -11.1922    0.0000 C    0  0  0  0  0  0  0  0  0  0  0  0
   15.0639  -10.4034    0.0000 C    0  0  0  0  0  0  0  0  0  0  0  0
   16.3755  -10.1729    0.0000 C    0  0  0  0  0  0  0  0  0  0  0  0
   19.5485  -14.0369    0.0000 C    0  0  0  0  0  0  0  0  0  0  0  0
   20.5677  -13.1861    0.0000 C    0  0  0  0  0  0  0  0  0  0  0  0
   19.7790  -15.3486    0.0000 C    0  0  0  0  0  0  0  0  0  0  0  0
   21.8174  -13.6379    0.0000 C    0  0  0  0  0  0  0  0  0  0  0  0
   21.0282  -15.8008    0.0000 C    0  0  0  0  0  0  0  0  0  0  0  0
   22.0475  -14.9496    0.0000 C    0  0  0  0  0  0  0  0  0  0  0  0
   16.5349  -15.0561    0.0000 C    0  0  0  0  0  0  0  0  0  0  0  0
   17.8466  -14.8256    0.0000 C    0  0  0  0  0  0  0  0  0  0  0  0
   16.0739  -16.3058    0.0000 C    0  0  0  0  0  0  0  0  0  0  0  0
   18.6973  -15.8449    0.0000 C    0  0  0  0  0  0  0  0  0  0  0  0
   16.9338  -17.3250    0.0000 C    0  0  0  0  0  0  0  0  0  0  0  0
   18.2368  -17.0946    0.0000 C    0  0  0  0  0  0  0  0  0  0  0  0
   21.0640   -9.3929    0.0000 C    0  0  0  0  0  0  0  0  0  0  0  0
   20.6031  -10.6426    0.0000 C    0  0  0  0  0  0  0  0  0  0  0  0
   20.2129   -8.3737    0.0000 C    0  0  0  0  0  0  0  0  0  0  0  0
   19.3001  -10.8644    0.0000 C    0  0  0  0  0  0  0  0  0  0  0  0
   18.9012   -8.5954    0.0000 C    0  0  0  0  0  0  0  0  0  0  0  0
   18.4406   -9.8451    0.0000 C    0  0  0  0  0  0  0  0  0  0  0  0
   13.0786  -10.5719    0.0000 Rh   0  0  0  0  0  0  0  0  0  0  0  0
   11.9267   -9.9071    0.0000 H    0  0  0  0  0  0  0  0  0  0  0  0
   14.2310   -9.9071    0.0000 H    0  0  0  0  0  0  0  0  0  0  0  0
   13.3091  -11.8836    0.0000 P    0  0  0  0  0  0  0  0  0  0  0  0
   18.2988  -13.5759    0.0000 P    0  0  0  0  0  0  0  0  0  0  0  0
   11.8381  -11.0328    0.0000 C    0  0  0  0  0  0  0  0  0  0  0  0
   10.6857  -10.3681    0.0000 O    0  0  0  0  0  0  0  0  0  0  0  0
   10.6857   -9.0385    0.0000 C    0  0  0  0  0  0  0  0  0  0  0  0
   11.1733  -12.1756    0.0000 O    0  0  0  0  0  0  0  0  0  0  0  0
  1  2  1  0  0  0  0
  1  3  2  0  0  0  0
  2  4  2  0  0  0  0
  3  5  1  0  0  0  0
  4  6  1  0  0  0  0
  5  6  2  0  0  0  0
  7  8  1  0  0  0  0
  7  9  2  0  0  0  0
  8 10  2  0  0  0  0
  9 11  1  0  0  0  0
 10 12  1  0  0  0  0
 11 12  2  0  0  0  0
 13 14  1  0  0  0  0
 13 15  2  0  0  0  0
 14 16  2  0  0  0  0
 15 17  1  0  0  0  0
 16 18  1  0  0  0  0
 17 18  2  0  0  0  0
 19 20  1  0  0  0  0
 19 21  2  0  0  0  0
 20 22  2  0  0  0  0
 21 23  1  0  0  0  0
 22 24  1  0  0  0  0
 23 24  2  0  0  0  0
 25 26  1  0  0  0  0
 25 27  2  0  0  0  0
 26 28  2  0  0  0  0
 27 29  1  0  0  0  0
 28 30  1  0  0  0  0
 29 30  2  0  0  0  0
 31 32  1  0  0  0  0
 31 33  2  0  0  0  0
 32 34  2  0  0  0  0
 33 35  1  0  0  0  0
 34 36  1  0  0  0  0
 35 36  2  0  0  0  0
 37 38  1  0  0  0  0
 37 39  2  0  0  0  0
 38 40  2  0  0  0  0
 39 41  1  0  0  0  0
 40 42  1  0  0  0  0
 41 42  2  0  0  0  0
 43 44  1  0  0  0  0
 43 45  1  0  0  0  0
 43 46  1  0  0  0  0
 43 47  1  0  0  0  0
 40 47  1  0  0  0  0
 32 47  1  0  0  0  0
 25 47  1  0  0  0  0
 21 46  1  0  0  0  0
 15 46  1  0  0  0  0
 11 46  1  0  0  0  0
  5 43  1  0  0  0  0
 43 48  1  0  0  0  0
 48 49  1  0  0  0  0
 49 50  1  0  0  0  0
 48 51  2  0  0  0  0
M  END
> <NMREDATA_VERSION>
1.1

> <NMREDATA_LEVEL>
0

> <NMREDATA_SOLVENT>
toluene-d8

> <NMREDATA_TEMPERATURE>
248

> <NMREDATA_FORMULA>
C43H41NO2P2Rh

> <NMREDATA_SMILES>
COC(=O)[RhH2](P(c1ccccc1)(c1ccccc1)c1ccccc1)(P(c1ccccc1)(c1ccccc1)c1ccccc1)c1ccccn1

> <NMREDATA_ASSIGNMENT>
Rh43, 630.00, 43

> <NMREDATA_1D_103Rh>
630.00, L=Rh43

$$$$

  ACD/LABS03282419412D

 56 63  0  0  0  0  0  0  0  0  1 V2000
   11.9267   -7.2484    0.0000 C    0  0  0  0  0  0  0  0  0  0  0  0
   13.0786   -6.5836    0.0000 C    0  0  0  0  0  0  0  0  0  0  0  0
   11.9267   -8.5775    0.0000 C    0  0  0  0  0  0  0  0  0  0  0  0
   14.2310   -7.2484    0.0000 C    0  0  0  0  0  0  0  0  0  0  0  0
   13.0786   -9.2423    0.0000 C    0  0  0  0  0  0  0  0  0  0  0  0
   14.2310   -8.5775    0.0000 N    0  0  0  0  0  0  0  0  0  0  0  0
   15.0198  -14.9496    0.0000 C    0  0  0  0  0  0  0  0  0  0  0  0
   14.0005  -15.8008    0.0000 C    0  0  0  0  0  0  0  0  0  0  0  0
   14.7893  -13.6379    0.0000 C    0  0  0  0  0  0  0  0  0  0  0  0
   12.7508  -15.3398    0.0000 C    0  0  0  0  0  0  0  0  0  0  0  0
   13.5396  -13.1774    0.0000 C    0  0  0  0  0  0  0  0  0  0  0  0
   12.5203  -14.0369    0.0000 C    0  0  0  0  0  0  0  0  0  0  0  0
   10.3487  -14.1608    0.0000 C    0  0  0  0  0  0  0  0  0  0  0  0
    9.0995  -14.6130    0.0000 C    0  0  0  0  0  0  0  0  0  0  0  0
   10.5884  -12.8491    0.0000 C    0  0  0  0  0  0  0  0  0  0  0  0
    8.0802  -13.7531    0.0000 C    0  0  0  0  0  0  0  0  0  0  0  0
    9.5691  -11.9984    0.0000 C    0  0  0  0  0  0  0  0  0  0  0  0
    8.3194  -12.4414    0.0000 C    0  0  0  0  0  0  0  0  0  0  0  0
   15.4624  -12.6632    0.0000 C    0  0  0  0  0  0  0  0  0  0  0  0
   16.7741  -12.4327    0.0000 C    0  0  0  0  0  0  0  0  0  0  0  0
   14.6208  -11.6531    0.0000 C    0  0  0  0  0  0  0  0  0  0  0  0
   17.2263  -11.1922    0.0000 C    0  0  0  0  0  0  0  0  0  0  0  0
   15.0639  -10.4034    0.0000 C    0  0  0  0  0  0  0  0  0  0  0  0
   16.3755  -10.1729    0.0000 C    0  0  0  0  0  0  0  0  0  0  0  0
   19.5485  -14.0369    0.0000 C    0  0  0  0  0  0  0  0  0  0  0  0
   20.5677  -13.1861    0.0000 C    0  0  0  0  0  0  0  0  0  0  0  0
   19.7790  -15.3486    0.0000 C    0  0  0  0  0  0  0  0  0  0  0  0
   21.8174  -13.6379    0.0000 C    0  0  0  0  0  0  0  0  0  0  0  0
   21.0282  -15.8008    0.0000 C    0  0  0  0  0  0  0  0  0  0  0  0
   22.0475  -14.9496    0.0000 C    0  0  0  0  0  0  0  0  0  0  0  0
   16.5349  -15.0561    0.0000 C    0  0  0  0  0  0  0  0  0  0  0  0
   17.8466  -14.8256    0.0000 C    0  0  0  0  0  0  0  0  0  0  0  0
   16.0739  -16.3058    0.0000 C    0  0  0  0  0  0  0  0  0  0  0  0
   18.6973  -15.8449    0.0000 C    0  0  0  0  0  0  0  0  0  0  0  0
   16.9338  -17.3250    0.0000 C    0  0  0  0  0  0  0  0  0  0  0  0
   18.2368  -17.0946    0.0000 C    0  0  0  0  0  0  0  0  0  0  0  0
   21.0640   -9.3929    0.0000 C    0  0  0  0  0  0  0  0  0  0  0  0
   20.6031  -10.6426    0.0000 C    0  0  0  0  0  0  0  0  0  0  0  0
   20.2129   -8.3737    0.0000 C    0  0  0  0  0  0  0  0  0  0  0  0
   19.3001  -10.8644    0.0000 C    0  0  0  0  0  0  0  0  0  0  0  0
   18.9012   -8.5954    0.0000 C    0  0  0  0  0  0  0  0  0  0  0  0
   18.4406   -9.8451    0.0000 C    0  0  0  0  0  0  0  0  0  0  0  0
   13.0786  -10.5719    0.0000 Rh   0  0  0  0  0  0  0  0  0  0  0  0
   11.9267   -9.9071    0.0000 H    0  0  0  0  0  0  0  0  0  0  0  0
   14.2310   -9.9071    0.0000 H    0  0  0  0  0  0  0  0  0  0  0  0
   13.3091  -11.8836    0.0000 P    0  0  0  0  0  0  0  0  0  0  0  0
   18.2988  -13.5759    0.0000 P    0  0  0  0  0  0  0  0  0  0  0  0
   11.8381  -11.0328    0.0000 C    0  0  0  0  0  0  0  0  0  0  0  0
   10.6857  -10.3681    0.0000 O    0  0  0  0  0  0  0  0  0  0  0  0
   11.1733  -12.1756    0.0000 O    0  0  0  0  0  0  0  0  0  0  0  0
   10.6853   -9.0381    0.0000 C    0  0  0  0  0  0  0  0  0  0  0  0
    9.5332   -8.3734    0.0000 C    0  0  0  0  0  0  0  0  0  0  0  0
   11.8369   -8.3726    0.0000 C    0  0  0  0  0  0  0  0  0  0  0  0
    9.5328   -7.0433    0.0000 C    0  0  0  0  0  0  0  0  0  0  0  0
   11.8365   -7.0426    0.0000 C    0  0  0  0  0  0  0  0  0  0  0  0
   10.6844   -6.3780    0.0000 C    0  0  0  0  0  0  0  0  0  0  0  0
  1  2  1  0  0  0  0
  1  3  2  0  0  0  0
  2  4  2  0  0  0  0
  3  5  1  0  0  0  0
  4  6  1  0  0  0  0
  5  6  2  0  0  0  0
  7  8  1  0  0  0  0
  7  9  2  0  0  0  0
  8 10  2  0  0  0  0
  9 11  1  0  0  0  0
 10 12  1  0  0  0  0
 11 12  2  0  0  0  0
 13 14  1  0  0  0  0
 13 15  2  0  0  0  0
 14 16  2  0  0  0  0
 15 17  1  0  0  0  0
 16 18  1  0  0  0  0
 17 18  2  0  0  0  0
 19 20  1  0  0  0  0
 19 21  2  0  0  0  0
 20 22  2  0  0  0  0
 21 23  1  0  0  0  0
 22 24  1  0  0  0  0
 23 24  2  0  0  0  0
 25 26  1  0  0  0  0
 25 27  2  0  0  0  0
 26 28  2  0  0  0  0
 27 29  1  0  0  0  0
 28 30  1  0  0  0  0
 29 30  2  0  0  0  0
 31 32  1  0  0  0  0
 31 33  2  0  0  0  0
 32 34  2  0  0  0  0
 33 35  1  0  0  0  0
 34 36  1  0  0  0  0
 35 36  2  0  0  0  0
 37 38  1  0  0  0  0
 37 39  2  0  0  0  0
 38 40  2  0  0  0  0
 39 41  1  0  0  0  0
 40 42  1  0  0  0  0
 41 42  2  0  0  0  0
 43 44  1  0  0  0  0
 43 45  1  0  0  0  0
 43 46  1  0  0  0  0
 43 47  1  0  0  0  0
 40 47  1  0  0  0  0
 32 47  1  0  0  0  0
 25 47  1  0  0  0  0
 21 46  1  0  0  0  0
 15 46  1  0  0  0  0
 11 46  1  0  0  0  0
  5 43  1  0  0  0  0
 43 48  1  0  0  0  0
 48 49  1  0  0  0  0
 48 50  2  0  0  0  0
 51 52  1  0  0  0  0
 51 53  2  0  0  0  0
 52 54  2  0  0  0  0
 53 55  1  0  0  0  0
 54 56  1  0  0  0  0
 55 56  2  0  0  0  0
 49 51  1  0  0  0  0
M  END
> <NMREDATA_VERSION>
1.1

> <NMREDATA_LEVEL>
0

> <NMREDATA_SOLVENT>
toluene-d8

> <NMREDATA_TEMPERATURE>
248

> <NMREDATA_FORMULA>
C48H43NO2P2Rh

> <NMREDATA_SMILES>
O=C([RhH2](P(c1ccccc1)(c1ccccc1)c1ccccc1)(P(c1ccccc1)(c1ccccc1)c1ccccc1)c1ccccn1)Oc1ccccc1

> <NMREDATA_ASSIGNMENT>
Rh43, 688.00, 43

> <NMREDATA_1D_103Rh>
688.00, L=Rh43

$$$$

  ACD/LABS03282419412D

 56 63  0  0  0  0  0  0  0  0  1 V2000
   11.9267   -7.2484    0.0000 C    0  0  0  0  0  0  0  0  0  0  0  0
   13.0786   -6.5836    0.0000 C    0  0  0  0  0  0  0  0  0  0  0  0
   11.9267   -8.5775    0.0000 C    0  0  0  0  0  0  0  0  0  0  0  0
   14.2310   -7.2484    0.0000 C    0  0  0  0  0  0  0  0  0  0  0  0
   13.0786   -9.2423    0.0000 C    0  0  0  0  0  0  0  0  0  0  0  0
   14.2310   -8.5775    0.0000 N    0  0  0  0  0  0  0  0  0  0  0  0
   15.0198  -14.9496    0.0000 C    0  0  0  0  0  0  0  0  0  0  0  0
   14.0005  -15.8008    0.0000 C    0  0  0  0  0  0  0  0  0  0  0  0
   14.7893  -13.6379    0.0000 C    0  0  0  0  0  0  0  0  0  0  0  0
   12.7508  -15.3398    0.0000 C    0  0  0  0  0  0  0  0  0  0  0  0
   13.5396  -13.1774    0.0000 C    0  0  0  0  0  0  0  0  0  0  0  0
   12.5203  -14.0369    0.0000 C    0  0  0  0  0  0  0  0  0  0  0  0
   10.3487  -14.1608    0.0000 C    0  0  0  0  0  0  0  0  0  0  0  0
    9.0995  -14.6130    0.0000 C    0  0  0  0  0  0  0  0  0  0  0  0
   10.5884  -12.8491    0.0000 C    0  0  0  0  0  0  0  0  0  0  0  0
    8.0802  -13.7531    0.0000 C    0  0  0  0  0  0  0  0  0  0  0  0
    9.5691  -11.9984    0.0000 C    0  0  0  0  0  0  0  0  0  0  0  0
    8.3194  -12.4414    0.0000 C    0  0  0  0  0  0  0  0  0  0  0  0
   15.4624  -12.6632    0.0000 C    0  0  0  0  0  0  0  0  0  0  0  0
   16.7741  -12.4327    0.0000 C    0  0  0  0  0  0  0  0  0  0  0  0
   14.6208  -11.6531    0.0000 C    0  0  0  0  0  0  0  0  0  0  0  0
   17.2263  -11.1922    0.0000 C    0  0  0  0  0  0  0  0  0  0  0  0
   15.0639  -10.4034    0.0000 C    0  0  0  0  0  0  0  0  0  0  0  0
   16.3755  -10.1729    0.0000 C    0  0  0  0  0  0  0  0  0  0  0  0
   19.5485  -14.0369    0.0000 C    0  0  0  0  0  0  0  0  0  0  0  0
   20.5677  -13.1861    0.0000 C    0  0  0  0  0  0  0  0  0  0  0  0
   19.7790  -15.3486    0.0000 C    0  0  0  0  0  0  0  0  0  0  0  0
   21.8174  -13.6379    0.0000 C    0  0  0  0  0  0  0  0  0  0  0  0
   21.0282  -15.8008    0.0000 C    0  0  0  0  0  0  0  0  0  0  0  0
   22.0475  -14.9496    0.0000 C    0  0  0  0  0  0  0  0  0  0  0  0
   16.5349  -15.0561    0.0000 C    0  0  0  0  0  0  0  0  0  0  0  0
   17.8466  -14.8256    0.0000 C    0  0  0  0  0  0  0  0  0  0  0  0
   16.0739  -16.3058    0.0000 C    0  0  0  0  0  0  0  0  0  0  0  0
   18.6973  -15.8449    0.0000 C    0  0  0  0  0  0  0  0  0  0  0  0
   16.9338  -17.3250    0.0000 C    0  0  0  0  0  0  0  0  0  0  0  0
   18.2368  -17.0946    0.0000 C    0  0  0  0  0  0  0  0  0  0  0  0
   21.0640   -9.3929    0.0000 C    0  0  0  0  0  0  0  0  0  0  0  0
   20.6031  -10.6426    0.0000 C    0  0  0  0  0  0  0  0  0  0  0  0
   20.2129   -8.3737    0.0000 C    0  0  0  0  0  0  0  0  0  0  0  0
   19.3001  -10.8644    0.0000 C    0  0  0  0  0  0  0  0  0  0  0  0
   18.9012   -8.5954    0.0000 C    0  0  0  0  0  0  0  0  0  0  0  0
   18.4406   -9.8451    0.0000 C    0  0  0  0  0  0  0  0  0  0  0  0
   13.0786  -10.5719    0.0000 Rh   0  0  0  0  0  0  0  0  0  0  0  0
   11.9267   -9.9071    0.0000 H    0  0  0  0  0  0  0  0  0  0  0  0
   14.2310   -9.9071    0.0000 H    0  0  0  0  0  0  0  0  0  0  0  0
   13.3091  -11.8836    0.0000 P    0  0  0  0  0  0  0  0  0  0  0  0
   18.2988  -13.5759    0.0000 P    0  0  0  0  0  0  0  0  0  0  0  0
   11.8381  -11.0328    0.0000 C    0  0  0  0  0  0  0  0  0  0  0  0
   10.6857  -10.3681    0.0000 O    0  0  0  0  0  0  0  0  0  0  0  0
   11.1733  -12.1756    0.0000 O    0  0  0  0  0  0  0  0  0  0  0  0
   10.6853   -9.0381    0.0000 C    0  0  0  0  0  0  0  0  0  0  0  0
    9.5332   -8.3734    0.0000 N    0  0  0  0  0  0  0  0  0  0  0  0
   11.8369   -8.3726    0.0000 C    0  0  0  0  0  0  0  0  0  0  0  0
    9.5328   -7.0433    0.0000 C    0  0  0  0  0  0  0  0  0  0  0  0
   11.8365   -7.0426    0.0000 C    0  0  0  0  0  0  0  0  0  0  0  0
   10.6844   -6.3780    0.0000 C    0  0  0  0  0  0  0  0  0  0  0  0
  1  2  1  0  0  0  0
  1  3  2  0  0  0  0
  2  4  2  0  0  0  0
  3  5  1  0  0  0  0
  4  6  1  0  0  0  0
  5  6  2  0  0  0  0
  7  8  1  0  0  0  0
  7  9  2  0  0  0  0
  8 10  2  0  0  0  0
  9 11  1  0  0  0  0
 10 12  1  0  0  0  0
 11 12  2  0  0  0  0
 13 14  1  0  0  0  0
 13 15  2  0  0  0  0
 14 16  2  0  0  0  0
 15 17  1  0  0  0  0
 16 18  1  0  0  0  0
 17 18  2  0  0  0  0
 19 20  1  0  0  0  0
 19 21  2  0  0  0  0
 20 22  2  0  0  0  0
 21 23  1  0  0  0  0
 22 24  1  0  0  0  0
 23 24  2  0  0  0  0
 25 26  1  0  0  0  0
 25 27  2  0  0  0  0
 26 28  2  0  0  0  0
 27 29  1  0  0  0  0
 28 30  1  0  0  0  0
 29 30  2  0  0  0  0
 31 32  1  0  0  0  0
 31 33  2  0  0  0  0
 32 34  2  0  0  0  0
 33 35  1  0  0  0  0
 34 36  1  0  0  0  0
 35 36  2  0  0  0  0
 37 38  1  0  0  0  0
 37 39  2  0  0  0  0
 38 40  2  0  0  0  0
 39 41  1  0  0  0  0
 40 42  1  0  0  0  0
 41 42  2  0  0  0  0
 43 44  1  0  0  0  0
 43 45  1  0  0  0  0
 43 46  1  0  0  0  0
 43 47  1  0  0  0  0
 40 47  1  0  0  0  0
 32 47  1  0  0  0  0
 25 47  1  0  0  0  0
 21 46  1  0  0  0  0
 15 46  1  0  0  0  0
 11 46  1  0  0  0  0
  5 43  1  0  0  0  0
 43 48  1  0  0  0  0
 48 49  1  0  0  0  0
 48 50  2  0  0  0  0
 51 52  1  0  0  0  0
 51 53  2  0  0  0  0
 52 54  2  0  0  0  0
 53 55  1  0  0  0  0
 54 56  1  0  0  0  0
 55 56  2  0  0  0  0
 49 51  1  0  0  0  0
M  END
> <NMREDATA_VERSION>
1.1

> <NMREDATA_LEVEL>
0

> <NMREDATA_SOLVENT>
DCCl3

> <NMREDATA_TEMPERATURE>
300

> <NMREDATA_FORMULA>
C47H42N2O2P2Rh

> <NMREDATA_SMILES>
O=C([RhH2](P(c1ccccc1)(c1ccccc1)c1ccccc1)(P(c1ccccc1)(c1ccccc1)c1ccccc1)c1ccccn1)Oc1ccccn1

> <NMREDATA_ASSIGNMENT>
Rh43, 523.00, 43

> <NMREDATA_1D_103Rh>
523.00, L=Rh43

$$$$

  ACD/LABS03292412322D

 50 56  0  0  0  0  0  0  0  0  1 V2000
   12.2211   -9.6305    0.0000 C    0  0  0  0  0  0  0  0  0  0  0  0
   11.0694   -8.9647    0.0000 O    0  0  0  0  0  0  0  0  0  0  0  0
   12.2164  -12.5294    0.0000 O    0  0  0  0  0  0  0  0  0  0  0  0
    8.8631  -19.1115    0.0000 C    0  0  0  0  0  0  0  0  0  0  0  0
    9.8871  -19.9632    0.0000 C    0  0  0  0  0  0  0  0  0  0  0  0
    9.0904  -17.8033    0.0000 C    0  0  0  0  0  0  0  0  0  0  0  0
   11.1385  -19.5071    0.0000 C    0  0  0  0  0  0  0  0  0  0  0  0
   10.3418  -17.3471    0.0000 C    0  0  0  0  0  0  0  0  0  0  0  0
   11.3657  -18.1988    0.0000 C    0  0  0  0  0  0  0  0  0  0  0  0
   12.7333  -15.2497    0.0000 C    0  0  0  0  0  0  0  0  0  0  0  0
   14.0334  -15.4816    0.0000 C    0  0  0  0  0  0  0  0  0  0  0  0
   11.8771  -16.2658    0.0000 C    0  0  0  0  0  0  0  0  0  0  0  0
   14.4974  -16.7285    0.0000 C    0  0  0  0  0  0  0  0  0  0  0  0
   12.3411  -17.5127    0.0000 C    0  0  0  0  0  0  0  0  0  0  0  0
   13.6493  -17.7400    0.0000 C    0  0  0  0  0  0  0  0  0  0  0  0
    8.4093  -16.8359    0.0000 C    0  0  0  0  0  0  0  0  0  0  0  0
    7.1011  -16.6086    0.0000 C    0  0  0  0  0  0  0  0  0  0  0  0
    9.2653  -15.8194    0.0000 C    0  0  0  0  0  0  0  0  0  0  0  0
    6.6446  -15.3574    0.0000 C    0  0  0  0  0  0  0  0  0  0  0  0
    8.8090  -14.5685    0.0000 C    0  0  0  0  0  0  0  0  0  0  0  0
    7.5008  -14.3413    0.0000 C    0  0  0  0  0  0  0  0  0  0  0  0
   16.0786  -16.0815    0.0000 C    0  0  0  0  0  0  0  0  0  0  0  0
   17.2299  -15.4168    0.0000 C    0  0  0  0  0  0  0  0  0  0  0  0
   16.0793  -17.4119    0.0000 C    0  0  0  0  0  0  0  0  0  0  0  0
   18.3820  -16.0824    0.0000 C    0  0  0  0  0  0  0  0  0  0  0  0
   17.2308  -18.0773    0.0000 C    0  0  0  0  0  0  0  0  0  0  0  0
   18.3822  -17.4126    0.0000 C    0  0  0  0  0  0  0  0  0  0  0  0
   16.9271  -14.2713    0.0000 C    0  0  0  0  0  0  0  0  0  0  0  0
   15.5968  -14.2720    0.0000 C    0  0  0  0  0  0  0  0  0  0  0  0
   17.5926  -13.1197    0.0000 C    0  0  0  0  0  0  0  0  0  0  0  0
   14.9368  -13.1288    0.0000 C    0  0  0  0  0  0  0  0  0  0  0  0
   16.9325  -11.9765    0.0000 C    0  0  0  0  0  0  0  0  0  0  0  0
   15.6023  -11.9767    0.0000 C    0  0  0  0  0  0  0  0  0  0  0  0
   12.9403  -20.0222    0.0000 C    0  0  0  0  0  0  0  0  0  0  0  0
   13.1721  -18.7218    0.0000 C    0  0  0  0  0  0  0  0  0  0  0  0
   13.9490  -20.8828    0.0000 C    0  0  0  0  0  0  0  0  0  0  0  0
   14.4233  -18.2653    0.0000 C    0  0  0  0  0  0  0  0  0  0  0  0
   15.2049  -20.4344    0.0000 C    0  0  0  0  0  0  0  0  0  0  0  0
   15.4318  -19.1264    0.0000 C    0  0  0  0  0  0  0  0  0  0  0  0
   11.0731  -13.1895    0.0000 Rh   0  0  0  0  0  0  0  0  0  0  0  0
    9.9218  -13.8542    0.0000 H    0  0  0  0  0  0  0  0  0  0  0  0
   11.0726  -11.8595    0.0000 H    0  0  0  0  0  0  0  0  0  0  0  0
   10.5736  -16.0467    0.0000 P    0  0  0  0  0  0  0  0  0  0  0  0
   14.9313  -15.4235    0.0000 P    0  0  0  0  0  0  0  0  0  0  0  0
   13.3725   -8.9657    0.0000 C    0  0  0  0  0  0  0  0  0  0  0  0
   14.5243   -9.6310    0.0000 N    0  0  0  0  0  0  0  0  0  0  0  0
   13.3721   -7.6352    0.0000 C    0  0  0  0  0  0  0  0  0  0  0  0
   15.6757   -8.9663    0.0000 C    0  0  0  0  0  0  0  0  0  0  0  0
   14.5234   -6.9705    0.0000 N    0  0  0  0  0  0  0  0  0  0  0  0
   15.6752   -7.6363    0.0000 C    0  0  0  0  0  0  0  0  0  0  0  0
  1  2  2  0  0  0  0
  1  3  1  0  0  0  0
  4  5  1  0  0  0  0
  4  6  2  0  0  0  0
  5  7  2  0  0  0  0
  6  8  1  0  0  0  0
  7  9  1  0  0  0  0
  8  9  2  0  0  0  0
 10 11  1  0  0  0  0
 10 12  2  0  0  0  0
 11 13  2  0  0  0  0
 12 14  1  0  0  0  0
 13 15  1  0  0  0  0
 14 15  2  0  0  0  0
 16 17  1  0  0  0  0
 16 18  2  0  0  0  0
 17 19  2  0  0  0  0
 18 20  1  0  0  0  0
 19 21  1  0  0  0  0
 20 21  2  0  0  0  0
 22 23  1  0  0  0  0
 22 24  2  0  0  0  0
 23 25  2  0  0  0  0
 24 26  1  0  0  0  0
 25 27  1  0  0  0  0
 26 27  2  0  0  0  0
 28 29  1  0  0  0  0
 28 30  2  0  0  0  0
 29 31  2  0  0  0  0
 30 32  1  0  0  0  0
 31 33  1  0  0  0  0
 32 33  2  0  0  0  0
 34 35  1  0  0  0  0
 34 36  2  0  0  0  0
 35 37  2  0  0  0  0
 36 38  1  0  0  0  0
 37 39  1  0  0  0  0
 38 39  2  0  0  0  0
 40 41  1  0  0  0  0
 40 42  1  0  0  0  0
 40 43  1  0  0  0  0
 40 44  1  0  0  0  0
 37 44  1  0  0  0  0
 29 44  1  0  0  0  0
 22 44  1  0  0  0  0
 18 43  1  0  0  0  0
 12 43  1  0  0  0  0
  8 43  1  0  0  0  0
  3 40  1  0  0  0  0
 45 46  1  0  0  0  0
 45 47  2  0  0  0  0
 46 48  2  0  0  0  0
 47 49  1  0  0  0  0
 48 50  1  0  0  0  0
 49 50  2  0  0  0  0
  1 45  1  0  0  0  0
M  END
> <NMREDATA_VERSION>
1.1

> <NMREDATA_LEVEL>
0

> <NMREDATA_SOLVENT>
DCCl3

> <NMREDATA_TEMPERATURE>
300

> <NMREDATA_FORMULA>
C41H37N2O2P2Rh

> <NMREDATA_SMILES>
O=C(c1cnccn1)O[RhH2](P(c1ccccc1)(c1ccccc1)c1ccccc1)P(c1ccccc1)(c1ccccc1)c1ccccc1

> <NMREDATA_ASSIGNMENT>
Rh40, 506.00, 40

> <NMREDATA_1D_103Rh>
506.00, L=Rh40

$$$$

  ACD/LABS03292412323D

 54 61  0  0  0  0  0  0  0  0  1 V2000
   12.2211   -9.6305    0.0000 C    0  0  0  0  0  0  0  0  0  0  0  0
   11.0694   -8.9647    0.0000 O    0  0  0  0  0  0  0  0  0  0  0  0
   12.2164  -12.5294    0.0000 O    0  0  0  0  0  0  0  0  0  0  0  0
    8.8631  -19.1115    0.0000 C    0  0  0  0  0  0  0  0  0  0  0  0
    9.8871  -19.9632    0.0000 C    0  0  0  0  0  0  0  0  0  0  0  0
    9.0904  -17.8033    0.0000 C    0  0  0  0  0  0  0  0  0  0  0  0
   11.1385  -19.5071    0.0000 C    0  0  0  0  0  0  0  0  0  0  0  0
   10.3418  -17.3471    0.0000 C    0  0  0  0  0  0  0  0  0  0  0  0
   11.3657  -18.1988    0.0000 C    0  0  0  0  0  0  0  0  0  0  0  0
   12.7333  -15.2497    0.0000 C    0  0  0  0  0  0  0  0  0  0  0  0
   14.0334  -15.4816    0.0000 C    0  0  0  0  0  0  0  0  0  0  0  0
   11.8771  -16.2658    0.0000 C    0  0  0  0  0  0  0  0  0  0  0  0
   14.4974  -16.7285    0.0000 C    0  0  0  0  0  0  0  0  0  0  0  0
   12.3411  -17.5127    0.0000 C    0  0  0  0  0  0  0  0  0  0  0  0
   13.6493  -17.7400    0.0000 C    0  0  0  0  0  0  0  0  0  0  0  0
    8.4093  -16.8359    0.0000 C    0  0  0  0  0  0  0  0  0  0  0  0
    7.1011  -16.6086    0.0000 C    0  0  0  0  0  0  0  0  0  0  0  0
    9.2653  -15.8194    0.0000 C    0  0  0  0  0  0  0  0  0  0  0  0
    6.6446  -15.3574    0.0000 C    0  0  0  0  0  0  0  0  0  0  0  0
    8.8090  -14.5685    0.0000 C    0  0  0  0  0  0  0  0  0  0  0  0
    7.5008  -14.3413    0.0000 C    0  0  0  0  0  0  0  0  0  0  0  0
   16.0786  -16.0815    0.0000 C    0  0  0  0  0  0  0  0  0  0  0  0
   17.2299  -15.4168    0.0000 C    0  0  0  0  0  0  0  0  0  0  0  0
   16.0793  -17.4119    0.0000 C    0  0  0  0  0  0  0  0  0  0  0  0
   18.3820  -16.0824    0.0000 C    0  0  0  0  0  0  0  0  0  0  0  0
   17.2308  -18.0773    0.0000 C    0  0  0  0  0  0  0  0  0  0  0  0
   18.3822  -17.4126    0.0000 C    0  0  0  0  0  0  0  0  0  0  0  0
   16.9271  -14.2713    0.0000 C    0  0  0  0  0  0  0  0  0  0  0  0
   15.5968  -14.2720    0.0000 C    0  0  0  0  0  0  0  0  0  0  0  0
   17.5926  -13.1197    0.0000 C    0  0  0  0  0  0  0  0  0  0  0  0
   14.9368  -13.1288    0.0000 C    0  0  0  0  0  0  0  0  0  0  0  0
   16.9325  -11.9765    0.0000 C    0  0  0  0  0  0  0  0  0  0  0  0
   15.6023  -11.9767    0.0000 C    0  0  0  0  0  0  0  0  0  0  0  0
   12.9403  -20.0222    0.0000 C    0  0  0  0  0  0  0  0  0  0  0  0
   13.1721  -18.7218    0.0000 C    0  0  0  0  0  0  0  0  0  0  0  0
   13.9490  -20.8828    0.0000 C    0  0  0  0  0  0  0  0  0  0  0  0
   14.4233  -18.2653    0.0000 C    0  0  0  0  0  0  0  0  0  0  0  0
   15.2049  -20.4344    0.0000 C    0  0  0  0  0  0  0  0  0  0  0  0
   15.4318  -19.1264    0.0000 C    0  0  0  0  0  0  0  0  0  0  0  0
   11.0731  -13.1895    0.0000 Rh   0  0  0  0  0  0  0  0  0  0  0  0
    9.9218  -13.8542    0.0000 H    0  0  0  0  0  0  0  0  0  0  0  0
   11.0726  -11.8595    0.0000 H    0  0  0  0  0  0  0  0  0  0  0  0
   10.5736  -16.0467    0.0000 P    0  0  0  0  0  0  0  0  0  0  0  0
   14.9313  -15.4235    0.0000 P    0  0  0  0  0  0  0  0  0  0  0  0
   13.3725   -8.9657    0.0000 C    0  0  0  0  0  0  0  0  0  0  0  0
   14.5243   -9.6310    0.0000 N    0  0  0  0  0  0  0  0  0  0  0  0
   13.3721   -7.6352    0.0000 C    0  0  0  0  0  0  0  0  0  0  0  0
   15.6757   -8.9663    0.0000 C    0  0  0  0  0  0  0  0  0  0  0  0
   14.5234   -6.9705    0.0000 C    0  0  0  0  0  0  0  0  0  0  0  0
   15.6752   -7.6363    0.0000 C    0  0  0  0  0  0  0  0  0  0  0  0
   16.8277   -9.6307    0.0000 C    0  0  0  0  0  0  0  0  0  0  0  0
   17.9792   -8.9652    0.0000 C    0  0  0  0  0  0  0  0  0  0  0  0
   16.8266   -6.9709    0.0000 C    0  0  0  0  0  0  0  0  0  0  0  0
   17.9786   -7.6353    0.0000 C    0  0  0  0  0  0  0  0  0  0  0  0
  1  2  2  0  0  0  0
  1  3  1  0  0  0  0
  4  5  1  0  0  0  0
  4  6  2  0  0  0  0
  5  7  2  0  0  0  0
  6  8  1  0  0  0  0
  7  9  1  0  0  0  0
  8  9  2  0  0  0  0
 10 11  1  0  0  0  0
 10 12  2  0  0  0  0
 11 13  2  0  0  0  0
 12 14  1  0  0  0  0
 13 15  1  0  0  0  0
 14 15  2  0  0  0  0
 16 17  1  0  0  0  0
 16 18  2  0  0  0  0
 17 19  2  0  0  0  0
 18 20  1  0  0  0  0
 19 21  1  0  0  0  0
 20 21  2  0  0  0  0
 22 23  1  0  0  0  0
 22 24  2  0  0  0  0
 23 25  2  0  0  0  0
 24 26  1  0  0  0  0
 25 27  1  0  0  0  0
 26 27  2  0  0  0  0
 28 29  1  0  0  0  0
 28 30  2  0  0  0  0
 29 31  2  0  0  0  0
 30 32  1  0  0  0  0
 31 33  1  0  0  0  0
 32 33  2  0  0  0  0
 34 35  1  0  0  0  0
 34 36  2  0  0  0  0
 35 37  2  0  0  0  0
 36 38  1  0  0  0  0
 37 39  1  0  0  0  0
 38 39  2  0  0  0  0
 40 41  1  0  0  0  0
 40 42  1  0  0  0  0
 40 43  1  0  0  0  0
 40 44  1  0  0  0  0
 37 44  1  0  0  0  0
 29 44  1  0  0  0  0
 22 44  1  0  0  0  0
 18 43  1  0  0  0  0
 12 43  1  0  0  0  0
  8 43  1  0  0  0  0
  3 40  1  0  0  0  0
 45 46  1  0  0  0  0
 45 47  2  0  0  0  0
 46 48  2  0  0  0  0
 47 49  1  0  0  0  0
 49 50  2  0  0  0  0
  1 45  1  0  0  0  0
 48 51  1  0  0  0  0
 48 50  1  0  0  0  0
 51 52  2  0  0  0  0
 50 53  1  0  0  0  0
 52 54  1  0  0  0  0
 53 54  2  0  0  0  0
M  END
> <NMREDATA_VERSION>
1.1

> <NMREDATA_LEVEL>
0

> <NMREDATA_SOLVENT>
DCCl3

> <NMREDATA_TEMPERATURE>
300

> <NMREDATA_FORMULA>
C46H40NO2P2Rh

> <NMREDATA_SMILES>
O=C(c1ccc2c(n1)cccc2)O[RhH2](P(c1ccccc1)(c1ccccc1)c1ccccc1)P(c1ccccc1)(c1ccccc1)c1ccccc1

> <NMREDATA_ASSIGNMENT>
Rh40, 453.00, 40

> <NMREDATA_1D_103Rh>
453.00, L=Rh40

$$$$

  ACD/LABS03292412342D

 57 64  0  0  0  0  0  0  0  0  1 V2000
   12.6671  -19.9422    0.0000 C    0  0  0  0  0  0  0  0  0  0  0  0
   13.7794  -20.6769    0.0000 C    0  0  0  0  0  0  0  0  0  0  0  0
   12.7546  -18.6203    0.0000 C    0  0  0  0  0  0  0  0  0  0  0  0
   14.9669  -20.0923    0.0000 C    0  0  0  0  0  0  0  0  0  0  0  0
   13.9389  -18.0237    0.0000 C    0  0  0  0  0  0  0  0  0  0  0  0
   15.0507  -18.7581    0.0000 C    0  0  0  0  0  0  0  0  0  0  0  0
   12.4298  -13.7729    0.0000 C    0  0  0  0  0  0  0  0  0  0  0  0
   11.1329  -13.4642    0.0000 C    0  0  0  0  0  0  0  0  0  0  0  0
   12.7981  -15.0507    0.0000 C    0  0  0  0  0  0  0  0  0  0  0  0
   10.2166  -14.4307    0.0000 C    0  0  0  0  0  0  0  0  0  0  0  0
   11.8865  -16.0092    0.0000 C    0  0  0  0  0  0  0  0  0  0  0  0
   10.5894  -15.7009    0.0000 C    0  0  0  0  0  0  0  0  0  0  0  0
   15.5880  -11.8687    0.0000 C    0  0  0  0  0  0  0  0  0  0  0  0
   15.8963  -10.5716    0.0000 C    0  0  0  0  0  0  0  0  0  0  0  0
   14.3058  -12.2447    0.0000 C    0  0  0  0  0  0  0  0  0  0  0  0
   14.9298   -9.6553    0.0000 C    0  0  0  0  0  0  0  0  0  0  0  0
   13.3395  -11.3280    0.0000 C    0  0  0  0  0  0  0  0  0  0  0  0
   13.6552  -10.0357    0.0000 C    0  0  0  0  0  0  0  0  0  0  0  0
   11.9991  -17.8361    0.0000 C    0  0  0  0  0  0  0  0  0  0  0  0
   11.7459  -19.1440    0.0000 C    0  0  0  0  0  0  0  0  0  0  0  0
   10.9984  -16.9613    0.0000 C    0  0  0  0  0  0  0  0  0  0  0  0
   10.4843  -19.5728    0.0000 C    0  0  0  0  0  0  0  0  0  0  0  0
    9.7448  -17.3948    0.0000 C    0  0  0  0  0  0  0  0  0  0  0  0
    9.4835  -18.6980    0.0000 C    0  0  0  0  0  0  0  0  0  0  0  0
   17.6696  -18.4981    0.0000 C    0  0  0  0  0  0  0  0  0  0  0  0
   16.3537  -18.7013    0.0000 C    0  0  0  0  0  0  0  0  0  0  0  0
   18.4933  -19.5369    0.0000 C    0  0  0  0  0  0  0  0  0  0  0  0
   15.8665  -19.9355    0.0000 C    0  0  0  0  0  0  0  0  0  0  0  0
   18.0136  -20.7759    0.0000 C    0  0  0  0  0  0  0  0  0  0  0  0
   16.6979  -20.9787    0.0000 C    0  0  0  0  0  0  0  0  0  0  0  0
    9.7809  -11.7620    0.0000 C    0  0  0  0  0  0  0  0  0  0  0  0
   10.4178  -12.9287    0.0000 C    0  0  0  0  0  0  0  0  0  0  0  0
   10.4692  -10.6230    0.0000 C    0  0  0  0  0  0  0  0  0  0  0  0
   11.7479  -12.9488    0.0000 C    0  0  0  0  0  0  0  0  0  0  0  0
   11.7902  -10.6589    0.0000 C    0  0  0  0  0  0  0  0  0  0  0  0
   12.4366  -11.8100    0.0000 C    0  0  0  0  0  0  0  0  0  0  0  0
   15.4214  -15.4382    0.0000 Rh   0  0  0  0  0  0  0  0  0  0  0  0
   15.5403  -14.1140    0.0000 H    0  0  0  0  0  0  0  0  0  0  0  0
   16.0918  -16.5832    0.0000 H    0  0  0  0  0  0  0  0  0  0  0  0
   14.1323  -15.1346    0.0000 P    0  0  0  0  0  0  0  0  0  0  0  0
   14.5385  -16.4343    0.0000 P    0  0  0  0  0  0  0  0  0  0  0  0
   16.7142  -15.1501    0.0000 O    0  0  0  0  0  0  0  0  0  0  0  0
   17.1079  -13.8830    0.0000 C    0  0  0  0  0  0  0  0  0  0  0  0
   16.2089  -12.9029    0.0000 O    0  0  0  0  0  0  0  0  0  0  0  0
   18.8071  -12.3237    0.0000 C    0  0  0  0  0  0  0  0  0  0  0  0
   17.9034  -11.3516    0.0000 O    0  0  0  0  0  0  0  0  0  0  0  0
   18.4085  -13.5993    0.0000 O    0  0  0  0  0  0  0  0  0  0  0  0
   20.0997  -12.0360    0.0000 C    0  0  0  0  0  0  0  0  0  0  0  0
   20.5060  -10.7648    0.0000 N    0  0  0  0  0  0  0  0  0  0  0  0
   20.9986  -13.0154    0.0000 C    0  0  0  0  0  0  0  0  0  0  0  0
   21.7989  -10.4767    0.0000 C    0  0  0  0  0  0  0  0  0  0  0  0
   22.3035  -12.7241    0.0000 C    0  0  0  0  0  0  0  0  0  0  0  0
   22.6975  -11.4565    0.0000 C    0  0  0  0  0  0  0  0  0  0  0  0
   22.1927   -9.2085    0.0000 C    0  0  0  0  0  0  0  0  0  0  0  0
   23.4978   -8.9178    0.0000 C    0  0  0  0  0  0  0  0  0  0  0  0
   23.9947  -11.1608    0.0000 C    0  0  0  0  0  0  0  0  0  0  0  0
   24.3966   -9.8972    0.0000 C    0  0  0  0  0  0  0  0  0  0  0  0
  1  2  1  0  0  0  0
  1  3  2  0  0  0  0
  2  4  2  0  0  0  0
  3  5  1  0  0  0  0
  4  6  1  0  0  0  0
  5  6  2  0  0  0  0
  7  8  1  0  0  0  0
  7  9  2  0  0  0  0
  8 10  2  0  0  0  0
  9 11  1  0  0  0  0
 10 12  1  0  0  0  0
 11 12  2  0  0  0  0
 13 14  1  0  0  0  0
 13 15  2  0  0  0  0
 14 16  2  0  0  0  0
 15 17  1  0  0  0  0
 16 18  1  0  0  0  0
 17 18  2  0  0  0  0
 19 20  1  0  0  0  0
 19 21  2  0  0  0  0
 20 22  2  0  0  0  0
 21 23  1  0  0  0  0
 22 24  1  0  0  0  0
 23 24  2  0  0  0  0
 25 26  1  0  0  0  0
 25 27  2  0  0  0  0
 26 28  2  0  0  0  0
 27 29  1  0  0  0  0
 28 30  1  0  0  0  0
 29 30  2  0  0  0  0
 31 32  1  0  0  0  0
 31 33  2  0  0  0  0
 32 34  2  0  0  0  0
 33 35  1  0  0  0  0
 34 36  1  0  0  0  0
 35 36  2  0  0  0  0
 37 38  1  0  0  0  0
 37 39  1  0  0  0  0
 37 40  1  0  0  0  0
 37 41  1  0  0  0  0
 34 41  1  0  0  0  0
 26 41  1  0  0  0  0
 19 41  1  0  0  0  0
 15 40  1  0  0  0  0
  9 40  1  0  0  0  0
  5 40  1  0  0  0  0
 37 42  1  0  0  0  0
 42 43  1  0  0  0  0
 43 44  2  0  0  0  0
 45 46  2  0  0  0  0
 45 47  1  0  0  0  0
 48 49  1  0  0  0  0
 48 50  2  0  0  0  0
 49 51  2  0  0  0  0
 50 52  1  0  0  0  0
 52 53  2  0  0  0  0
 45 48  1  0  0  0  0
 51 54  1  0  0  0  0
 51 53  1  0  0  0  0
 54 55  2  0  0  0  0
 53 56  1  0  0  0  0
 55 57  1  0  0  0  0
 56 57  2  0  0  0  0
 43 47  1  0  0  0  0
M  END
> <NMREDATA_VERSION>
1.1

> <NMREDATA_LEVEL>
0

> <NMREDATA_SOLVENT>
DCCl3

> <NMREDATA_TEMPERATURE>
300

> <NMREDATA_FORMULA>
C47H40NO4P2Rh

> <NMREDATA_SMILES>
O=C(O[RhH2](P(c1ccccc1)(c1ccccc1)c1ccccc1)P(c1ccccc1)(c1ccccc1)c1ccccc1)OC(=O)c1ccc2c(n1)cccc2

> <NMREDATA_ASSIGNMENT>
Rh37, 490.00, 37

> <NMREDATA_1D_103Rh>
490.00, L=Rh37

$$$$

  ACD/LABS03292412342D

 57 64  0  0  0  0  0  0  0  0  1 V2000
   12.6671  -19.9422    0.0000 C    0  0  0  0  0  0  0  0  0  0  0  0
   13.7794  -20.6769    0.0000 C    0  0  0  0  0  0  0  0  0  0  0  0
   12.7546  -18.6203    0.0000 C    0  0  0  0  0  0  0  0  0  0  0  0
   14.9669  -20.0923    0.0000 C    0  0  0  0  0  0  0  0  0  0  0  0
   13.9389  -18.0237    0.0000 C    0  0  0  0  0  0  0  0  0  0  0  0
   15.0507  -18.7581    0.0000 C    0  0  0  0  0  0  0  0  0  0  0  0
   12.4298  -13.7729    0.0000 C    0  0  0  0  0  0  0  0  0  0  0  0
   11.1329  -13.4642    0.0000 C    0  0  0  0  0  0  0  0  0  0  0  0
   12.7981  -15.0507    0.0000 C    0  0  0  0  0  0  0  0  0  0  0  0
   10.2166  -14.4307    0.0000 C    0  0  0  0  0  0  0  0  0  0  0  0
   11.8865  -16.0092    0.0000 C    0  0  0  0  0  0  0  0  0  0  0  0
   10.5894  -15.7009    0.0000 C    0  0  0  0  0  0  0  0  0  0  0  0
   15.5880  -11.8687    0.0000 C    0  0  0  0  0  0  0  0  0  0  0  0
   15.8963  -10.5716    0.0000 C    0  0  0  0  0  0  0  0  0  0  0  0
   14.3058  -12.2447    0.0000 C    0  0  0  0  0  0  0  0  0  0  0  0
   14.9298   -9.6553    0.0000 C    0  0  0  0  0  0  0  0  0  0  0  0
   13.3395  -11.3280    0.0000 C    0  0  0  0  0  0  0  0  0  0  0  0
   13.6552  -10.0357    0.0000 C    0  0  0  0  0  0  0  0  0  0  0  0
   11.9991  -17.8361    0.0000 C    0  0  0  0  0  0  0  0  0  0  0  0
   11.7459  -19.1440    0.0000 C    0  0  0  0  0  0  0  0  0  0  0  0
   10.9984  -16.9613    0.0000 C    0  0  0  0  0  0  0  0  0  0  0  0
   10.4843  -19.5728    0.0000 C    0  0  0  0  0  0  0  0  0  0  0  0
    9.7448  -17.3948    0.0000 C    0  0  0  0  0  0  0  0  0  0  0  0
    9.4835  -18.6980    0.0000 C    0  0  0  0  0  0  0  0  0  0  0  0
   17.6696  -18.4981    0.0000 C    0  0  0  0  0  0  0  0  0  0  0  0
   16.3537  -18.7013    0.0000 C    0  0  0  0  0  0  0  0  0  0  0  0
   18.4933  -19.5369    0.0000 C    0  0  0  0  0  0  0  0  0  0  0  0
   15.8665  -19.9355    0.0000 C    0  0  0  0  0  0  0  0  0  0  0  0
   18.0136  -20.7759    0.0000 C    0  0  0  0  0  0  0  0  0  0  0  0
   16.6979  -20.9787    0.0000 C    0  0  0  0  0  0  0  0  0  0  0  0
    9.7809  -11.7620    0.0000 C    0  0  0  0  0  0  0  0  0  0  0  0
   10.4178  -12.9287    0.0000 C    0  0  0  0  0  0  0  0  0  0  0  0
   10.4692  -10.6230    0.0000 C    0  0  0  0  0  0  0  0  0  0  0  0
   11.7479  -12.9488    0.0000 C    0  0  0  0  0  0  0  0  0  0  0  0
   11.7902  -10.6589    0.0000 C    0  0  0  0  0  0  0  0  0  0  0  0
   12.4366  -11.8100    0.0000 C    0  0  0  0  0  0  0  0  0  0  0  0
   15.4214  -15.4382    0.0000 Rh   0  0  0  0  0  0  0  0  0  0  0  0
   15.5403  -14.1140    0.0000 H    0  0  0  0  0  0  0  0  0  0  0  0
   16.0918  -16.5832    0.0000 H    0  0  0  0  0  0  0  0  0  0  0  0
   14.1323  -15.1346    0.0000 P    0  0  0  0  0  0  0  0  0  0  0  0
   14.5385  -16.4343    0.0000 P    0  0  0  0  0  0  0  0  0  0  0  0
   16.7142  -15.1501    0.0000 O    0  0  0  0  0  0  0  0  0  0  0  0
   17.1079  -13.8830    0.0000 C    0  0  0  0  0  0  0  0  0  0  0  0
   16.2089  -12.9029    0.0000 O    0  0  0  0  0  0  0  0  0  0  0  0
   18.8071  -12.3237    0.0000 C    0  0  0  0  0  0  0  0  0  0  0  0
   17.9034  -11.3516    0.0000 O    0  0  0  0  0  0  0  0  0  0  0  0
   18.4085  -13.5993    0.0000 O    0  0  0  0  0  0  0  0  0  0  0  0
   20.0997  -12.0360    0.0000 C    0  0  0  0  0  0  0  0  0  0  0  0
   20.5060  -10.7648    0.0000 N    0  0  0  0  0  0  0  0  0  0  0  0
   20.9986  -13.0154    0.0000 C    0  0  0  0  0  0  0  0  0  0  0  0
   21.7989  -10.4767    0.0000 C    0  0  0  0  0  0  0  0  0  0  0  0
   22.3035  -12.7241    0.0000 N    0  0  0  0  0  0  0  0  0  0  0  0
   22.6975  -11.4565    0.0000 C    0  0  0  0  0  0  0  0  0  0  0  0
   22.1927   -9.2085    0.0000 C    0  0  0  0  0  0  0  0  0  0  0  0
   23.4978   -8.9178    0.0000 C    0  0  0  0  0  0  0  0  0  0  0  0
   23.9947  -11.1608    0.0000 C    0  0  0  0  0  0  0  0  0  0  0  0
   24.3966   -9.8972    0.0000 C    0  0  0  0  0  0  0  0  0  0  0  0
  1  2  1  0  0  0  0
  1  3  2  0  0  0  0
  2  4  2  0  0  0  0
  3  5  1  0  0  0  0
  4  6  1  0  0  0  0
  5  6  2  0  0  0  0
  7  8  1  0  0  0  0
  7  9  2  0  0  0  0
  8 10  2  0  0  0  0
  9 11  1  0  0  0  0
 10 12  1  0  0  0  0
 11 12  2  0  0  0  0
 13 14  1  0  0  0  0
 13 15  2  0  0  0  0
 14 16  2  0  0  0  0
 15 17  1  0  0  0  0
 16 18  1  0  0  0  0
 17 18  2  0  0  0  0
 19 20  1  0  0  0  0
 19 21  2  0  0  0  0
 20 22  2  0  0  0  0
 21 23  1  0  0  0  0
 22 24  1  0  0  0  0
 23 24  2  0  0  0  0
 25 26  1  0  0  0  0
 25 27  2  0  0  0  0
 26 28  2  0  0  0  0
 27 29  1  0  0  0  0
 28 30  1  0  0  0  0
 29 30  2  0  0  0  0
 31 32  1  0  0  0  0
 31 33  2  0  0  0  0
 32 34  2  0  0  0  0
 33 35  1  0  0  0  0
 34 36  1  0  0  0  0
 35 36  2  0  0  0  0
 37 38  1  0  0  0  0
 37 39  1  0  0  0  0
 37 40  1  0  0  0  0
 37 41  1  0  0  0  0
 34 41  1  0  0  0  0
 26 41  1  0  0  0  0
 19 41  1  0  0  0  0
 15 40  1  0  0  0  0
  9 40  1  0  0  0  0
  5 40  1  0  0  0  0
 37 42  1  0  0  0  0
 42 43  1  0  0  0  0
 43 44  2  0  0  0  0
 45 46  2  0  0  0  0
 45 47  1  0  0  0  0
 48 49  1  0  0  0  0
 48 50  2  0  0  0  0
 49 51  2  0  0  0  0
 50 52  1  0  0  0  0
 52 53  2  0  0  0  0
 45 48  1  0  0  0  0
 51 54  1  0  0  0  0
 51 53  1  0  0  0  0
 54 55  2  0  0  0  0
 53 56  1  0  0  0  0
 55 57  1  0  0  0  0
 56 57  2  0  0  0  0
 43 47  1  0  0  0  0
M  END
> <NMREDATA_VERSION>
1.1

> <NMREDATA_LEVEL>
0

> <NMREDATA_SOLVENT>
DCCl3

> <NMREDATA_TEMPERATURE>
300

> <NMREDATA_FORMULA>
C46H39N2O4P2Rh

> <NMREDATA_SMILES>
O=C(O[RhH2](P(c1ccccc1)(c1ccccc1)c1ccccc1)P(c1ccccc1)(c1ccccc1)c1ccccc1)OC(=O)c1cnc2c(n1)cccc2

> <NMREDATA_ASSIGNMENT>
Rh37, 436.00, 37

> <NMREDATA_1D_103Rh>
436.00, L=Rh37

$$$$

  ACD/LABS03292412352D

 48 54  0  0  0  0  0  0  0  0  1 V2000
   13.8490  -13.3733    0.0000 C    0  0  0  0  0  0  0  0  0  0  0  0
   13.3877  -12.1228    0.0000 C    0  0  0  0  0  0  0  0  0  0  0  0
   15.1525  -13.6037    0.0000 C    0  0  0  0  0  0  0  0  0  0  0  0
   14.2392  -11.1031    0.0000 C    0  0  0  0  0  0  0  0  0  0  0  0
   16.0124  -12.5841    0.0000 C    0  0  0  0  0  0  0  0  0  0  0  0
   15.5515  -11.3336    0.0000 C    0  0  0  0  0  0  0  0  0  0  0  0
   16.1633  -10.8193    0.0000 C    0  0  0  0  0  0  0  0  0  0  0  0
   16.1633   -9.4893    0.0000 C    0  0  0  0  0  0  0  0  0  0  0  0
   17.3067  -11.4845    0.0000 C    0  0  0  0  0  0  0  0  0  0  0  0
   17.3067   -8.8245    0.0000 C    0  0  0  0  0  0  0  0  0  0  0  0
   18.4596  -10.8193    0.0000 C    0  0  0  0  0  0  0  0  0  0  0  0
   18.4596   -9.4893    0.0000 C    0  0  0  0  0  0  0  0  0  0  0  0
   18.1048  -14.9691    0.0000 C    0  0  0  0  0  0  0  0  0  0  0  0
   17.8743  -16.2722    0.0000 C    0  0  0  0  0  0  0  0  0  0  0  0
   17.0851  -14.1180    0.0000 C    0  0  0  0  0  0  0  0  0  0  0  0
   16.6334  -16.7334    0.0000 C    0  0  0  0  0  0  0  0  0  0  0  0
   15.8442  -14.5793    0.0000 C    0  0  0  0  0  0  0  0  0  0  0  0
   15.6134  -15.8824    0.0000 C    0  0  0  0  0  0  0  0  0  0  0  0
   14.0883  -18.8174    0.0000 C    0  0  0  0  0  0  0  0  0  0  0  0
   14.7534  -19.9699    0.0000 C    0  0  0  0  0  0  0  0  0  0  0  0
   12.7583  -18.8174    0.0000 C    0  0  0  0  0  0  0  0  0  0  0  0
   14.0883  -21.1137    0.0000 C    0  0  0  0  0  0  0  0  0  0  0  0
   12.0934  -19.9699    0.0000 C    0  0  0  0  0  0  0  0  0  0  0  0
   12.7583  -21.1137    0.0000 C    0  0  0  0  0  0  0  0  0  0  0  0
   13.6005  -15.6692    0.0000 C    0  0  0  0  0  0  0  0  0  0  0  0
   13.6005  -16.9996    0.0000 C    0  0  0  0  0  0  0  0  0  0  0  0
   12.4479  -15.0044    0.0000 C    0  0  0  0  0  0  0  0  0  0  0  0
   12.4479  -17.6644    0.0000 C    0  0  0  0  0  0  0  0  0  0  0  0
   11.3042  -15.6692    0.0000 C    0  0  0  0  0  0  0  0  0  0  0  0
   11.3042  -16.9996    0.0000 C    0  0  0  0  0  0  0  0  0  0  0  0
   18.4062  -21.1048    0.0000 C    0  0  0  0  0  0  0  0  0  0  0  0
   17.2537  -20.4400    0.0000 C    0  0  0  0  0  0  0  0  0  0  0  0
   19.5592  -20.4400    0.0000 C    0  0  0  0  0  0  0  0  0  0  0  0
   17.2537  -19.1100    0.0000 C    0  0  0  0  0  0  0  0  0  0  0  0
   19.5592  -19.1100    0.0000 C    0  0  0  0  0  0  0  0  0  0  0  0
   18.4062  -18.4448    0.0000 C    0  0  0  0  0  0  0  0  0  0  0  0
   18.6190  -13.0361    0.0000 Rh   0  0  0  0  0  0  0  0  0  0  0  0
   19.4705  -12.0164    0.0000 H    0  0  0  0  0  0  0  0  0  0  0  0
   19.0803  -14.2866    0.0000 H    0  0  0  0  0  0  0  0  0  0  0  0
   17.3067  -12.8145    0.0000 P    0  0  0  0  0  0  0  0  0  0  0  0
   14.7534  -17.6644    0.0000 P    0  0  0  0  0  0  0  0  0  0  0  0
   19.9313  -13.2669    0.0000 C    0  0  0  0  0  0  0  0  0  0  0  0
   20.3838  -14.5170    0.0000 C    0  0  0  0  0  0  0  0  0  0  0  0
   20.7828  -12.2469    0.0000 C    0  0  0  0  0  0  0  0  0  0  0  0
   21.6961  -14.7475    0.0000 C    0  0  0  0  0  0  0  0  0  0  0  0
   22.0951  -12.4777    0.0000 C    0  0  0  0  0  0  0  0  0  0  0  0
   22.5472  -13.7278    0.0000 N    0  0  0  0  0  0  0  0  0  0  0  0
   18.1670  -11.7860    0.0000 Cl   0  0  0  0  0  0  0  0  0  0  0  0
  1  2  1  0  0  0  0
  1  3  2  0  0  0  0
  2  4  2  0  0  0  0
  3  5  1  0  0  0  0
  4  6  1  0  0  0  0
  5  6  2  0  0  0  0
  7  8  1  0  0  0  0
  7  9  2  0  0  0  0
  8 10  2  0  0  0  0
  9 11  1  0  0  0  0
 10 12  1  0  0  0  0
 11 12  2  0  0  0  0
 13 14  1  0  0  0  0
 13 15  2  0  0  0  0
 14 16  2  0  0  0  0
 15 17  1  0  0  0  0
 16 18  1  0  0  0  0
 17 18  2  0  0  0  0
 19 20  1  0  0  0  0
 19 21  2  0  0  0  0
 20 22  2  0  0  0  0
 21 23  1  0  0  0  0
 22 24  1  0  0  0  0
 23 24  2  0  0  0  0
 25 26  1  0  0  0  0
 25 27  2  0  0  0  0
 26 28  2  0  0  0  0
 27 29  1  0  0  0  0
 28 30  1  0  0  0  0
 29 30  2  0  0  0  0
 31 32  1  0  0  0  0
 31 33  2  0  0  0  0
 32 34  2  0  0  0  0
 33 35  1  0  0  0  0
 34 36  1  0  0  0  0
 35 36  2  0  0  0  0
 37 38  1  0  0  0  0
 37 39  1  0  0  0  0
 37 40  1  0  0  0  0
 37 41  1  0  0  0  0
 34 41  1  0  0  0  0
 26 41  1  0  0  0  0
 19 41  1  0  0  0  0
 15 40  1  0  0  0  0
  9 40  1  0  0  0  0
  5 40  1  0  0  0  0
 42 43  1  0  0  0  0
 42 44  2  0  0  0  0
 43 45  2  0  0  0  0
 44 46  1  0  0  0  0
 45 47  1  0  0  0  0
 46 47  2  0  0  0  0
 37 42  1  0  0  0  0
 37 48  1  0  0  0  0
M  END
> <NMREDATA_VERSION>
1.1

> <NMREDATA_LEVEL>
0

> <NMREDATA_SOLVENT>
toluene-d8

> <NMREDATA_TEMPERATURE>
300

> <NMREDATA_FORMULA>
C41H38ClNP2Rh

> <NMREDATA_SMILES>
Cl[RhH2](P(c1ccccc1)(c1ccccc1)c1ccccc1)(P(c1ccccc1)(c1ccccc1)c1ccccc1)c1ccncc1

> <NMREDATA_ASSIGNMENT>
Rh37, 485.00, 37

> <NMREDATA_1D_103Rh>
485.00, L=Rh37

$$$$

  ACD/LABS03292412352D

 48 54  0  0  0  0  0  0  0  0  1 V2000
   13.8490  -13.3733    0.0000 C    0  0  0  0  0  0  0  0  0  0  0  0
   13.3877  -12.1228    0.0000 C    0  0  0  0  0  0  0  0  0  0  0  0
   15.1525  -13.6037    0.0000 C    0  0  0  0  0  0  0  0  0  0  0  0
   14.2392  -11.1031    0.0000 C    0  0  0  0  0  0  0  0  0  0  0  0
   16.0124  -12.5841    0.0000 C    0  0  0  0  0  0  0  0  0  0  0  0
   15.5515  -11.3336    0.0000 C    0  0  0  0  0  0  0  0  0  0  0  0
   16.1633  -10.8193    0.0000 C    0  0  0  0  0  0  0  0  0  0  0  0
   16.1633   -9.4893    0.0000 C    0  0  0  0  0  0  0  0  0  0  0  0
   17.3067  -11.4845    0.0000 C    0  0  0  0  0  0  0  0  0  0  0  0
   17.3067   -8.8245    0.0000 C    0  0  0  0  0  0  0  0  0  0  0  0
   18.4596  -10.8193    0.0000 C    0  0  0  0  0  0  0  0  0  0  0  0
   18.4596   -9.4893    0.0000 C    0  0  0  0  0  0  0  0  0  0  0  0
   18.1048  -14.9691    0.0000 C    0  0  0  0  0  0  0  0  0  0  0  0
   17.8743  -16.2722    0.0000 C    0  0  0  0  0  0  0  0  0  0  0  0
   17.0851  -14.1180    0.0000 C    0  0  0  0  0  0  0  0  0  0  0  0
   16.6334  -16.7334    0.0000 C    0  0  0  0  0  0  0  0  0  0  0  0
   15.8442  -14.5793    0.0000 C    0  0  0  0  0  0  0  0  0  0  0  0
   15.6134  -15.8824    0.0000 C    0  0  0  0  0  0  0  0  0  0  0  0
   14.0883  -18.8174    0.0000 C    0  0  0  0  0  0  0  0  0  0  0  0
   14.7534  -19.9699    0.0000 C    0  0  0  0  0  0  0  0  0  0  0  0
   12.7583  -18.8174    0.0000 C    0  0  0  0  0  0  0  0  0  0  0  0
   14.0883  -21.1137    0.0000 C    0  0  0  0  0  0  0  0  0  0  0  0
   12.0934  -19.9699    0.0000 C    0  0  0  0  0  0  0  0  0  0  0  0
   12.7583  -21.1137    0.0000 C    0  0  0  0  0  0  0  0  0  0  0  0
   13.6005  -15.6692    0.0000 C    0  0  0  0  0  0  0  0  0  0  0  0
   13.6005  -16.9996    0.0000 C    0  0  0  0  0  0  0  0  0  0  0  0
   12.4479  -15.0044    0.0000 C    0  0  0  0  0  0  0  0  0  0  0  0
   12.4479  -17.6644    0.0000 C    0  0  0  0  0  0  0  0  0  0  0  0
   11.3042  -15.6692    0.0000 C    0  0  0  0  0  0  0  0  0  0  0  0
   11.3042  -16.9996    0.0000 C    0  0  0  0  0  0  0  0  0  0  0  0
   18.4062  -21.1048    0.0000 C    0  0  0  0  0  0  0  0  0  0  0  0
   17.2537  -20.4400    0.0000 C    0  0  0  0  0  0  0  0  0  0  0  0
   19.5592  -20.4400    0.0000 C    0  0  0  0  0  0  0  0  0  0  0  0
   17.2537  -19.1100    0.0000 C    0  0  0  0  0  0  0  0  0  0  0  0
   19.5592  -19.1100    0.0000 C    0  0  0  0  0  0  0  0  0  0  0  0
   18.4062  -18.4448    0.0000 C    0  0  0  0  0  0  0  0  0  0  0  0
   18.6190  -13.0361    0.0000 Rh   0  0  0  0  0  0  0  0  0  0  0  0
   19.4705  -12.0164    0.0000 H    0  0  0  0  0  0  0  0  0  0  0  0
   19.0803  -14.2866    0.0000 H    0  0  0  0  0  0  0  0  0  0  0  0
   17.3067  -12.8145    0.0000 P    0  0  0  0  0  0  0  0  0  0  0  0
   14.7534  -17.6644    0.0000 P    0  0  0  0  0  0  0  0  0  0  0  0
   19.9313  -13.2669    0.0000 C    0  0  0  0  0  0  0  0  0  0  0  0
   20.3838  -14.5170    0.0000 C    0  0  0  0  0  0  0  0  0  0  0  0
   20.7828  -12.2469    0.0000 C    0  0  0  0  0  0  0  0  0  0  0  0
   21.6961  -14.7475    0.0000 C    0  0  0  0  0  0  0  0  0  0  0  0
   22.0951  -12.4777    0.0000 C    0  0  0  0  0  0  0  0  0  0  0  0
   22.5472  -13.7278    0.0000 N    0  0  0  0  0  0  0  0  0  0  0  0
   18.1670  -11.7860    0.0000 Cl   0  0  0  0  0  0  0  0  0  0  0  0
  1  2  1  0  0  0  0
  1  3  2  0  0  0  0
  2  4  2  0  0  0  0
  3  5  1  0  0  0  0
  4  6  1  0  0  0  0
  5  6  2  0  0  0  0
  7  8  1  0  0  0  0
  7  9  2  0  0  0  0
  8 10  2  0  0  0  0
  9 11  1  0  0  0  0
 10 12  1  0  0  0  0
 11 12  2  0  0  0  0
 13 14  1  0  0  0  0
 13 15  2  0  0  0  0
 14 16  2  0  0  0  0
 15 17  1  0  0  0  0
 16 18  1  0  0  0  0
 17 18  2  0  0  0  0
 19 20  1  0  0  0  0
 19 21  2  0  0  0  0
 20 22  2  0  0  0  0
 21 23  1  0  0  0  0
 22 24  1  0  0  0  0
 23 24  2  0  0  0  0
 25 26  1  0  0  0  0
 25 27  2  0  0  0  0
 26 28  2  0  0  0  0
 27 29  1  0  0  0  0
 28 30  1  0  0  0  0
 29 30  2  0  0  0  0
 31 32  1  0  0  0  0
 31 33  2  0  0  0  0
 32 34  2  0  0  0  0
 33 35  1  0  0  0  0
 34 36  1  0  0  0  0
 35 36  2  0  0  0  0
 37 38  1  0  0  0  0
 37 39  1  0  0  0  0
 37 40  1  0  0  0  0
 37 41  1  0  0  0  0
 34 41  1  0  0  0  0
 26 41  1  0  0  0  0
 19 41  1  0  0  0  0
 15 40  1  0  0  0  0
  9 40  1  0  0  0  0
  5 40  1  0  0  0  0
 42 43  1  0  0  0  0
 42 44  2  0  0  0  0
 43 45  2  0  0  0  0
 44 46  1  0  0  0  0
 45 47  1  0  0  0  0
 46 47  2  0  0  0  0
 37 42  1  0  0  0  0
 37 48  1  0  0  0  0
M  END
> <NMREDATA_VERSION>
1.1

> <NMREDATA_LEVEL>
0

> <NMREDATA_SOLVENT>
toluene-d8

> <NMREDATA_TEMPERATURE>
247

> <NMREDATA_FORMULA>
C41H38ClNP2Rh

> <NMREDATA_SMILES>
Cl[RhH2](P(c1ccccc1)(c1ccccc1)c1ccccc1)(P(c1ccccc1)(c1ccccc1)c1ccccc1)c1ccncc1

> <NMREDATA_ASSIGNMENT>
Rh37, 460.00, 37

> <NMREDATA_1D_103Rh>
460.00, L=Rh37

$$$$

  ACD/LABS03292412362D

 49 55  0  0  0  0  0  0  0  0  1 V2000
   13.8490  -13.3733    0.0000 C    0  0  0  0  0  0  0  0  0  0  0  0
   13.3877  -12.1228    0.0000 C    0  0  0  0  0  0  0  0  0  0  0  0
   15.1525  -13.6037    0.0000 C    0  0  0  0  0  0  0  0  0  0  0  0
   14.2392  -11.1031    0.0000 C    0  0  0  0  0  0  0  0  0  0  0  0
   16.0124  -12.5841    0.0000 C    0  0  0  0  0  0  0  0  0  0  0  0
   15.5515  -11.3336    0.0000 C    0  0  0  0  0  0  0  0  0  0  0  0
   16.1633  -10.8193    0.0000 C    0  0  0  0  0  0  0  0  0  0  0  0
   16.1633   -9.4893    0.0000 C    0  0  0  0  0  0  0  0  0  0  0  0
   17.3067  -11.4845    0.0000 C    0  0  0  0  0  0  0  0  0  0  0  0
   17.3067   -8.8245    0.0000 C    0  0  0  0  0  0  0  0  0  0  0  0
   18.4596  -10.8193    0.0000 C    0  0  0  0  0  0  0  0  0  0  0  0
   18.4596   -9.4893    0.0000 C    0  0  0  0  0  0  0  0  0  0  0  0
   18.1048  -14.9691    0.0000 C    0  0  0  0  0  0  0  0  0  0  0  0
   17.8743  -16.2722    0.0000 C    0  0  0  0  0  0  0  0  0  0  0  0
   17.0851  -14.1180    0.0000 C    0  0  0  0  0  0  0  0  0  0  0  0
   16.6334  -16.7334    0.0000 C    0  0  0  0  0  0  0  0  0  0  0  0
   15.8442  -14.5793    0.0000 C    0  0  0  0  0  0  0  0  0  0  0  0
   15.6134  -15.8824    0.0000 C    0  0  0  0  0  0  0  0  0  0  0  0
   14.0883  -18.8174    0.0000 C    0  0  0  0  0  0  0  0  0  0  0  0
   14.7534  -19.9699    0.0000 C    0  0  0  0  0  0  0  0  0  0  0  0
   12.7583  -18.8174    0.0000 C    0  0  0  0  0  0  0  0  0  0  0  0
   14.0883  -21.1137    0.0000 C    0  0  0  0  0  0  0  0  0  0  0  0
   12.0934  -19.9699    0.0000 C    0  0  0  0  0  0  0  0  0  0  0  0
   12.7583  -21.1137    0.0000 C    0  0  0  0  0  0  0  0  0  0  0  0
   13.6005  -15.6692    0.0000 C    0  0  0  0  0  0  0  0  0  0  0  0
   13.6005  -16.9996    0.0000 C    0  0  0  0  0  0  0  0  0  0  0  0
   12.4479  -15.0044    0.0000 C    0  0  0  0  0  0  0  0  0  0  0  0
   12.4479  -17.6644    0.0000 C    0  0  0  0  0  0  0  0  0  0  0  0
   11.3042  -15.6692    0.0000 C    0  0  0  0  0  0  0  0  0  0  0  0
   11.3042  -16.9996    0.0000 C    0  0  0  0  0  0  0  0  0  0  0  0
   18.4062  -21.1048    0.0000 C    0  0  0  0  0  0  0  0  0  0  0  0
   17.2537  -20.4400    0.0000 C    0  0  0  0  0  0  0  0  0  0  0  0
   19.5592  -20.4400    0.0000 C    0  0  0  0  0  0  0  0  0  0  0  0
   17.2537  -19.1100    0.0000 C    0  0  0  0  0  0  0  0  0  0  0  0
   19.5592  -19.1100    0.0000 C    0  0  0  0  0  0  0  0  0  0  0  0
   18.4062  -18.4448    0.0000 C    0  0  0  0  0  0  0  0  0  0  0  0
   18.6190  -13.0361    0.0000 Rh   0  0  0  0  0  0  0  0  0  0  0  0
   19.4705  -12.0164    0.0000 H    0  0  0  0  0  0  0  0  0  0  0  0
   19.0803  -14.2866    0.0000 H    0  0  0  0  0  0  0  0  0  0  0  0
   17.3067  -12.8145    0.0000 P    0  0  0  0  0  0  0  0  0  0  0  0
   14.7534  -17.6644    0.0000 P    0  0  0  0  0  0  0  0  0  0  0  0
   18.1670  -11.7860    0.0000 Cl   0  0  0  0  0  0  0  0  0  0  0  0
   19.9296  -13.2627    0.0000 N    0  0  0  0  0  0  0  0  0  0  0  0
   20.8832  -12.3356    0.0000 N    0  0  0  0  0  0  0  0  0  0  0  0
   20.5166  -14.4561    0.0000 C    0  0  0  0  0  0  0  0  0  0  0  0
   22.0596  -12.9560    0.0000 C    0  0  0  0  0  0  0  0  0  0  0  0
   21.8332  -14.2666    0.0000 C    0  0  0  0  0  0  0  0  0  0  0  0
   23.2530  -12.3689    0.0000 C    0  0  0  0  0  0  0  0  0  0  0  0
   19.8962  -15.6325    0.0000 C    0  0  0  0  0  0  0  0  0  0  0  0
  1  2  1  0  0  0  0
  1  3  2  0  0  0  0
  2  4  2  0  0  0  0
  3  5  1  0  0  0  0
  4  6  1  0  0  0  0
  5  6  2  0  0  0  0
  7  8  1  0  0  0  0
  7  9  2  0  0  0  0
  8 10  2  0  0  0  0
  9 11  1  0  0  0  0
 10 12  1  0  0  0  0
 11 12  2  0  0  0  0
 13 14  1  0  0  0  0
 13 15  2  0  0  0  0
 14 16  2  0  0  0  0
 15 17  1  0  0  0  0
 16 18  1  0  0  0  0
 17 18  2  0  0  0  0
 19 20  1  0  0  0  0
 19 21  2  0  0  0  0
 20 22  2  0  0  0  0
 21 23  1  0  0  0  0
 22 24  1  0  0  0  0
 23 24  2  0  0  0  0
 25 26  1  0  0  0  0
 25 27  2  0  0  0  0
 26 28  2  0  0  0  0
 27 29  1  0  0  0  0
 28 30  1  0  0  0  0
 29 30  2  0  0  0  0
 31 32  1  0  0  0  0
 31 33  2  0  0  0  0
 32 34  2  0  0  0  0
 33 35  1  0  0  0  0
 34 36  1  0  0  0  0
 35 36  2  0  0  0  0
 37 38  1  0  0  0  0
 37 39  1  0  0  0  0
 37 40  1  0  0  0  0
 37 41  1  0  0  0  0
 34 41  1  0  0  0  0
 26 41  1  0  0  0  0
 19 41  1  0  0  0  0
 15 40  1  0  0  0  0
  9 40  1  0  0  0  0
  5 40  1  0  0  0  0
 37 42  1  0  0  0  0
 43 44  1  0  0  0  0
 43 45  1  0  0  0  0
 44 46  2  0  0  0  0
 45 47  2  0  0  0  0
 46 47  1  0  0  0  0
 37 43  1  0  0  0  0
 46 48  1  0  0  0  0
 45 49  1  0  0  0  0
M  END
> <NMREDATA_VERSION>
1.1

> <NMREDATA_LEVEL>
0

> <NMREDATA_SOLVENT>
CD2Cl2

> <NMREDATA_TEMPERATURE>
300

> <NMREDATA_FORMULA>
C41H41ClN2P2Rh

> <NMREDATA_SMILES>
Cc1nn(c(c1)C)[RhH2](P(c1ccccc1)(c1ccccc1)c1ccccc1)(P(c1ccccc1)(c1ccccc1)c1ccccc1)Cl

> <NMREDATA_ASSIGNMENT>
Rh37, 387.00, 37

> <NMREDATA_1D_103Rh>
387.00, L=Rh37

$$$$

  ACD/LABS03292412382D

 54 60  0  0  0  0  0  0  0  0  1 V2000
   27.2281  -14.0831    0.0000 C    0  0  0  0  0  0  0  0  0  0  0  0
   28.0887  -13.0629    0.0000 C    0  0  0  0  0  0  0  0  0  0  0  0
   25.9245  -13.8612    0.0000 C    0  0  0  0  0  0  0  0  0  0  0  0
   27.6274  -11.8213    0.0000 C    0  0  0  0  0  0  0  0  0  0  0  0
   25.4632  -12.6104    0.0000 C    0  0  0  0  0  0  0  0  0  0  0  0
   26.3146  -11.5907    0.0000 C    0  0  0  0  0  0  0  0  0  0  0  0
   25.0638  -14.8814    0.0000 C    0  0  0  0  0  0  0  0  0  0  0  0
   21.3302  -10.2955    0.0000 C    0  0  0  0  0  0  0  0  0  0  0  0
   22.3320   -9.4352    0.0000 C    0  0  0  0  0  0  0  0  0  0  0  0
   21.5697  -11.5995    0.0000 C    0  0  0  0  0  0  0  0  0  0  0  0
   23.5828   -9.8786    0.0000 C    0  0  0  0  0  0  0  0  0  0  0  0
   22.8201  -12.0428    0.0000 C    0  0  0  0  0  0  0  0  0  0  0  0
   23.8310  -11.1825    0.0000 C    0  0  0  0  0  0  0  0  0  0  0  0
   23.0595  -13.3555    0.0000 C    0  0  0  0  0  0  0  0  0  0  0  0
   21.6496  -19.3689    0.0000 C    0  0  0  0  0  0  0  0  0  0  0  0
   22.4919  -20.3803    0.0000 C    0  0  0  0  0  0  0  0  0  0  0  0
   22.0837  -18.1181    0.0000 C    0  0  0  0  0  0  0  0  0  0  0  0
   23.8046  -20.1496    0.0000 C    0  0  0  0  0  0  0  0  0  0  0  0
   23.3965  -17.8787    0.0000 C    0  0  0  0  0  0  0  0  0  0  0  0
   24.2568  -18.8988    0.0000 C    0  0  0  0  0  0  0  0  0  0  0  0
   21.2415  -17.0984    0.0000 C    0  0  0  0  0  0  0  0  0  0  0  0
   17.8001  -19.2094    0.0000 C    0  0  0  0  0  0  0  0  0  0  0  0
   18.8202  -18.3488    0.0000 C    0  0  0  0  0  0  0  0  0  0  0  0
   18.0395  -20.5222    0.0000 C    0  0  0  0  0  0  0  0  0  0  0  0
   20.0706  -18.8013    0.0000 C    0  0  0  0  0  0  0  0  0  0  0  0
   19.2903  -20.9655    0.0000 C    0  0  0  0  0  0  0  0  0  0  0  0
   20.3101  -20.1140    0.0000 C    0  0  0  0  0  0  0  0  0  0  0  0
   21.0908  -17.9410    0.0000 C    0  0  0  0  0  0  0  0  0  0  0  0
   18.5096  -15.2623    0.0000 C    0  0  0  0  0  0  0  0  0  0  0  0
   17.8444  -16.4152    0.0000 C    0  0  0  0  0  0  0  0  0  0  0  0
   17.8532  -14.1186    0.0000 C    0  0  0  0  0  0  0  0  0  0  0  0
   16.5141  -16.4064    0.0000 C    0  0  0  0  0  0  0  0  0  0  0  0
   16.5229  -14.1095    0.0000 C    0  0  0  0  0  0  0  0  0  0  0  0
   15.8485  -15.2535    0.0000 C    0  0  0  0  0  0  0  0  0  0  0  0
   19.8224  -15.5018    0.0000 C    0  0  0  0  0  0  0  0  0  0  0  0
   24.3723  -17.2934    0.0000 C    0  0  0  0  0  0  0  0  0  0  0  0
   24.8244  -16.0426    0.0000 C    0  0  0  0  0  0  0  0  0  0  0  0
   25.2325  -18.3136    0.0000 C    0  0  0  0  0  0  0  0  0  0  0  0
   26.1284  -15.8124    0.0000 C    0  0  0  0  0  0  0  0  0  0  0  0
   26.5365  -18.0741    0.0000 C    0  0  0  0  0  0  0  0  0  0  0  0
   26.9886  -16.8233    0.0000 C    0  0  0  0  0  0  0  0  0  0  0  0
   23.9641  -15.0409    0.0000 C    0  0  0  0  0  0  0  0  0  0  0  0
   21.0640  -13.7193    0.0000 Rh   0  0  0  0  0  0  0  0  0  0  0  0
   21.0552  -12.3889    0.0000 H    0  0  0  0  0  0  0  0  0  0  0  0
   19.9199  -14.3933    0.0000 H    0  0  0  0  0  0  0  0  0  0  0  0
   22.2081  -14.3845    0.0000 P    0  0  0  0  0  0  0  0  0  0  0  0
   21.0728  -15.0497    0.0000 P    0  0  0  0  0  0  0  0  0  0  0  0
   22.2081  -13.0541    0.0000 Cl   0  0  0  0  0  0  0  0  0  0  0  0
   19.9111  -13.0629    0.0000 C    0  0  0  0  0  0  0  0  0  0  0  0
   18.7579  -13.7369    0.0000 C    0  0  0  0  0  0  0  0  0  0  0  0
   19.9023  -11.7326    0.0000 C    0  0  0  0  0  0  0  0  0  0  0  0
   17.6050  -13.0717    0.0000 C    0  0  0  0  0  0  0  0  0  0  0  0
   18.7491  -11.0762    0.0000 C    0  0  0  0  0  0  0  0  0  0  0  0
   17.5962  -11.7414    0.0000 N    0  0  0  0  0  0  0  0  0  0  0  0
  1  2  1  0  0  0  0
  1  3  2  0  0  0  0
  2  4  2  0  0  0  0
  3  5  1  0  0  0  0
  4  6  1  0  0  0  0
  5  6  2  0  0  0  0
  3  7  1  0  0  0  0
  8  9  1  0  0  0  0
  8 10  2  0  0  0  0
  9 11  2  0  0  0  0
 10 12  1  0  0  0  0
 11 13  1  0  0  0  0
 12 13  2  0  0  0  0
 12 14  1  0  0  0  0
 15 16  1  0  0  0  0
 15 17  2  0  0  0  0
 16 18  2  0  0  0  0
 17 19  1  0  0  0  0
 18 20  1  0  0  0  0
 19 20  2  0  0  0  0
 17 21  1  0  0  0  0
 22 23  1  0  0  0  0
 22 24  2  0  0  0  0
 23 25  2  0  0  0  0
 24 26  1  0  0  0  0
 25 27  1  0  0  0  0
 26 27  2  0  0  0  0
 25 28  1  0  0  0  0
 29 30  1  0  0  0  0
 29 31  2  0  0  0  0
 30 32  2  0  0  0  0
 31 33  1  0  0  0  0
 32 34  1  0  0  0  0
 33 34  2  0  0  0  0
 29 35  1  0  0  0  0
 36 37  1  0  0  0  0
 36 38  2  0  0  0  0
 37 39  2  0  0  0  0
 38 40  1  0  0  0  0
 39 41  1  0  0  0  0
 40 41  2  0  0  0  0
 37 42  1  0  0  0  0
 43 44  1  0  0  0  0
 43 45  1  0  0  0  0
 43 46  1  0  0  0  0
 43 47  1  0  0  0  0
 43 48  1  0  0  0  0
 49 50  1  0  0  0  0
 49 51  2  0  0  0  0
 50 52  2  0  0  0  0
 51 53  1  0  0  0  0
 52 54  1  0  0  0  0
 53 54  2  0  0  0  0
 43 49  1  0  0  0  0
 42 47  1  0  0  0  0
 35 47  1  0  0  0  0
 28 47  1  0  0  0  0
 21 46  1  0  0  0  0
 14 46  1  0  0  0  0
  7 46  1  0  0  0  0
M  END
> <NMREDATA_VERSION>
1.1

> <NMREDATA_LEVEL>
0

> <NMREDATA_SOLVENT>
toluene-d8

> <NMREDATA_TEMPERATURE>
275

> <NMREDATA_FORMULA>
C47H50ClNP2Rh

> <NMREDATA_SMILES>
Cl[RhH2](P(Cc1ccccc1)(Cc1ccccc1)Cc1ccccc1)(P(Cc1ccccc1)(Cc1ccccc1)Cc1ccccc1)c1ccncc1

> <NMREDATA_ASSIGNMENT>
Rh43, 119.00, 43

> <NMREDATA_1D_103Rh>
119.00, L=Rh43

$$$$

  ACD/LABS03292412412D

 48 54  0  0  0  0  0  0  0  0  1 V2000
   13.8490  -13.3733    0.0000 C    0  0  0  0  0  0  0  0  0  0  0  0
   13.3877  -12.1228    0.0000 C    0  0  0  0  0  0  0  0  0  0  0  0
   15.1525  -13.6037    0.0000 C    0  0  0  0  0  0  0  0  0  0  0  0
   14.2392  -11.1031    0.0000 C    0  0  0  0  0  0  0  0  0  0  0  0
   16.0124  -12.5841    0.0000 C    0  0  0  0  0  0  0  0  0  0  0  0
   15.5515  -11.3336    0.0000 C    0  0  0  0  0  0  0  0  0  0  0  0
   16.1633  -10.8193    0.0000 C    0  0  0  0  0  0  0  0  0  0  0  0
   16.1633   -9.4893    0.0000 C    0  0  0  0  0  0  0  0  0  0  0  0
   17.3067  -11.4845    0.0000 C    0  0  0  0  0  0  0  0  0  0  0  0
   17.3067   -8.8245    0.0000 C    0  0  0  0  0  0  0  0  0  0  0  0
   18.4596  -10.8193    0.0000 C    0  0  0  0  0  0  0  0  0  0  0  0
   18.4596   -9.4893    0.0000 C    0  0  0  0  0  0  0  0  0  0  0  0
   18.1048  -14.9691    0.0000 C    0  0  0  0  0  0  0  0  0  0  0  0
   17.8743  -16.2722    0.0000 C    0  0  0  0  0  0  0  0  0  0  0  0
   17.0851  -14.1180    0.0000 C    0  0  0  0  0  0  0  0  0  0  0  0
   16.6334  -16.7334    0.0000 C    0  0  0  0  0  0  0  0  0  0  0  0
   15.8442  -14.5793    0.0000 C    0  0  0  0  0  0  0  0  0  0  0  0
   15.6134  -15.8824    0.0000 C    0  0  0  0  0  0  0  0  0  0  0  0
   14.0883  -18.8174    0.0000 C    0  0  0  0  0  0  0  0  0  0  0  0
   14.7534  -19.9699    0.0000 C    0  0  0  0  0  0  0  0  0  0  0  0
   12.7583  -18.8174    0.0000 C    0  0  0  0  0  0  0  0  0  0  0  0
   14.0883  -21.1137    0.0000 C    0  0  0  0  0  0  0  0  0  0  0  0
   12.0934  -19.9699    0.0000 C    0  0  0  0  0  0  0  0  0  0  0  0
   12.7583  -21.1137    0.0000 C    0  0  0  0  0  0  0  0  0  0  0  0
   13.6005  -15.6692    0.0000 C    0  0  0  0  0  0  0  0  0  0  0  0
   13.6005  -16.9996    0.0000 C    0  0  0  0  0  0  0  0  0  0  0  0
   12.4479  -15.0044    0.0000 C    0  0  0  0  0  0  0  0  0  0  0  0
   12.4479  -17.6644    0.0000 C    0  0  0  0  0  0  0  0  0  0  0  0
   11.3042  -15.6692    0.0000 C    0  0  0  0  0  0  0  0  0  0  0  0
   11.3042  -16.9996    0.0000 C    0  0  0  0  0  0  0  0  0  0  0  0
   18.4062  -21.1048    0.0000 C    0  0  0  0  0  0  0  0  0  0  0  0
   17.2537  -20.4400    0.0000 C    0  0  0  0  0  0  0  0  0  0  0  0
   19.5592  -20.4400    0.0000 C    0  0  0  0  0  0  0  0  0  0  0  0
   17.2537  -19.1100    0.0000 C    0  0  0  0  0  0  0  0  0  0  0  0
   19.5592  -19.1100    0.0000 C    0  0  0  0  0  0  0  0  0  0  0  0
   18.4062  -18.4448    0.0000 C    0  0  0  0  0  0  0  0  0  0  0  0
   18.6190  -13.0361    0.0000 Rh   0  0  0  0  0  0  0  0  0  0  0  0
   19.4705  -12.0164    0.0000 H    0  0  0  0  0  0  0  0  0  0  0  0
   19.0803  -14.2866    0.0000 H    0  0  0  0  0  0  0  0  0  0  0  0
   17.3067  -12.8145    0.0000 P    0  0  0  0  0  0  0  0  0  0  0  0
   14.7534  -17.6644    0.0000 P    0  0  0  0  0  0  0  0  0  0  0  0
   18.1670  -11.7860    0.0000 Cl   0  0  0  0  0  0  0  0  0  0  0  0
   19.9296  -13.2627    0.0000 C    0  0  0  0  0  0  0  0  0  0  0  0
   20.7811  -12.2410    0.0000 C    0  0  0  0  0  0  0  0  0  0  0  0
   20.3887  -14.5110    0.0000 C    0  0  0  0  0  0  0  0  0  0  0  0
   22.0917  -12.4676    0.0000 C    0  0  0  0  0  0  0  0  0  0  0  0
   21.6992  -14.7375    0.0000 C    0  0  0  0  0  0  0  0  0  0  0  0
   22.5507  -13.7159    0.0000 N    0  0  0  0  0  0  0  0  0  0  0  0
  1  2  1  0  0  0  0
  1  3  1  0  0  0  0
  2  4  1  0  0  0  0
  3  5  1  0  0  0  0
  4  6  1  0  0  0  0
  5  6  1  0  0  0  0
  7  8  1  0  0  0  0
  7  9  1  0  0  0  0
  8 10  1  0  0  0  0
  9 11  1  0  0  0  0
 10 12  1  0  0  0  0
 11 12  1  0  0  0  0
 13 14  1  0  0  0  0
 13 15  1  0  0  0  0
 14 16  1  0  0  0  0
 15 17  1  0  0  0  0
 16 18  1  0  0  0  0
 17 18  1  0  0  0  0
 19 20  1  0  0  0  0
 19 21  1  0  0  0  0
 20 22  1  0  0  0  0
 21 23  1  0  0  0  0
 22 24  1  0  0  0  0
 23 24  1  0  0  0  0
 25 26  1  0  0  0  0
 25 27  1  0  0  0  0
 26 28  1  0  0  0  0
 27 29  1  0  0  0  0
 28 30  1  0  0  0  0
 29 30  1  0  0  0  0
 31 32  1  0  0  0  0
 31 33  1  0  0  0  0
 32 34  1  0  0  0  0
 33 35  1  0  0  0  0
 34 36  1  0  0  0  0
 35 36  1  0  0  0  0
 37 38  1  0  0  0  0
 37 39  1  0  0  0  0
 37 40  1  0  0  0  0
 37 41  1  0  0  0  0
 34 41  1  0  0  0  0
 26 41  1  0  0  0  0
 19 41  1  0  0  0  0
 15 40  1  0  0  0  0
  9 40  1  0  0  0  0
  5 40  1  0  0  0  0
 37 42  1  0  0  0  0
 43 44  1  0  0  0  0
 43 45  2  0  0  0  0
 44 46  2  0  0  0  0
 45 47  1  0  0  0  0
 46 48  1  0  0  0  0
 47 48  2  0  0  0  0
 37 43  1  0  0  0  0
M  END
> <NMREDATA_VERSION>
1.1

> <NMREDATA_LEVEL>
0

> <NMREDATA_SOLVENT>
toluene-d8

> <NMREDATA_TEMPERATURE>
235

> <NMREDATA_FORMULA>
C41H74ClNP2Rh

> <NMREDATA_SMILES>
Cl[RhH2](P(C1CCCCC1)(C1CCCCC1)C1CCCCC1)(P(C1CCCCC1)(C1CCCCC1)C1CCCCC1)c1ccncc1

> <NMREDATA_ASSIGNMENT>
Rh37, 337.00, 37

> <NMREDATA_1D_103Rh>
337.00, L=Rh37

$$$$

  ACD/LABS03292412422D

 38 42  0  0  0  0  0  0  0  0  1 V2000
   15.3554  -13.9492    0.0000 C    0  0  0  0  0  0  0  0  0  0  0  0
   14.6971  -12.8013    0.0000 C    0  0  0  0  0  0  0  0  0  0  0  0
   16.6859  -13.9495    0.0000 C    0  0  0  0  0  0  0  0  0  0  0  0
   15.3576  -11.6574    0.0000 C    0  0  0  0  0  0  0  0  0  0  0  0
   17.3464  -12.8056    0.0000 C    0  0  0  0  0  0  0  0  0  0  0  0
   16.6808  -11.6535    0.0000 C    0  0  0  0  0  0  0  0  0  0  0  0
   17.3517  -15.1018    0.0000 C    0  0  0  0  0  0  0  0  0  0  0  0
   18.3068  -13.0222    0.0000 C    0  0  0  0  0  0  0  0  0  0  0  0
   17.4502  -12.0053    0.0000 C    0  0  0  0  0  0  0  0  0  0  0  0
   19.6200  -12.7872    0.0000 C    0  0  0  0  0  0  0  0  0  0  0  0
   17.8991  -10.7490    0.0000 C    0  0  0  0  0  0  0  0  0  0  0  0
   20.0690  -11.5309    0.0000 C    0  0  0  0  0  0  0  0  0  0  0  0
   19.2123  -10.5140    0.0000 C    0  0  0  0  0  0  0  0  0  0  0  0
   20.4685  -13.7994    0.0000 C    0  0  0  0  0  0  0  0  0  0  0  0
   16.7952  -17.0946    0.0000 C    0  0  0  0  0  0  0  0  0  0  0  0
   16.7947  -18.4255    0.0000 C    0  0  0  0  0  0  0  0  0  0  0  0
   17.9475  -16.4288    0.0000 C    0  0  0  0  0  0  0  0  0  0  0  0
   17.9387  -19.0859    0.0000 C    0  0  0  0  0  0  0  0  0  0  0  0
   19.0914  -17.0893    0.0000 C    0  0  0  0  0  0  0  0  0  0  0  0
   19.0910  -18.4201    0.0000 C    0  0  0  0  0  0  0  0  0  0  0  0
   20.2437  -16.4234    0.0000 C    0  0  0  0  0  0  0  0  0  0  0  0
   25.1314  -13.9521    0.0000 C    0  0  0  0  0  0  0  0  0  0  0  0
   25.7964  -12.8003    0.0000 C    0  0  0  0  0  0  0  0  0  0  0  0
   23.8082  -13.9560    0.0000 C    0  0  0  0  0  0  0  0  0  0  0  0
   25.1384  -11.6521    0.0000 N    0  0  0  0  0  0  0  0  0  0  0  0
   23.1427  -12.8039    0.0000 C    0  0  0  0  0  0  0  0  0  0  0  0
   23.8077  -11.6521    0.0000 C    0  0  0  0  0  0  0  0  0  0  0  0
   23.1432  -15.1078    0.0000 Rh   0  0  0  0  0  0  0  0  0  0  0  0
   24.4664  -15.1039    0.0000 H    0  0  0  0  0  0  0  0  0  0  0  0
   22.4777  -13.9557    0.0000 H    0  0  0  0  0  0  0  0  0  0  0  0
   20.2442  -15.0926    0.0000 P    0  0  0  0  0  0  0  0  0  0  0  0
   23.8014  -16.2557    0.0000 Cl   0  0  0  0  0  0  0  0  0  0  0  0
   22.4828  -16.2518    0.0000 C    0  0  0  0  0  0  0  0  0  0  0  0
   23.1408  -17.3999    0.0000 C    0  0  0  0  0  0  0  0  0  0  0  0
   21.1520  -16.2517    0.0000 C    0  0  0  0  0  0  0  0  0  0  0  0
   22.4758  -18.5517    0.0000 C    0  0  0  0  0  0  0  0  0  0  0  0
   20.4870  -17.4035    0.0000 C    0  0  0  0  0  0  0  0  0  0  0  0
   21.1526  -18.5557    0.0000 N    0  0  0  0  0  0  0  0  0  0  0  0
  1  2  2  0  0  0  0
  1  3  1  0  0  0  0
  2  4  1  0  0  0  0
  3  5  2  0  0  0  0
  4  6  2  0  0  0  0
  5  6  1  0  0  0  0
  3  7  1  0  0  0  0
  8  9  1  0  0  0  0
  8 10  2  0  0  0  0
  9 11  2  0  0  0  0
 10 12  1  0  0  0  0
 11 13  1  0  0  0  0
 12 13  2  0  0  0  0
 10 14  1  0  0  0  0
 15 16  1  0  0  0  0
 15 17  2  0  0  0  0
 16 18  2  0  0  0  0
 17 19  1  0  0  0  0
 18 20  1  0  0  0  0
 19 20  2  0  0  0  0
 19 21  1  0  0  0  0
 22 23  1  0  0  0  0
 22 24  2  0  0  0  0
 23 25  2  0  0  0  0
 24 26  1  0  0  0  0
 25 27  1  0  0  0  0
 26 27  2  0  0  0  0
 28 29  1  0  0  0  0
 28 30  1  0  0  0  0
 28 31  1  0  0  0  0
 28 32  1  0  0  0  0
 33 34  1  0  0  0  0
 33 35  2  0  0  0  0
 34 36  2  0  0  0  0
 35 37  1  0  0  0  0
 36 38  1  0  0  0  0
 37 38  2  0  0  0  0
 28 33  1  0  0  0  0
 24 28  1  0  0  0  0
 21 31  1  0  0  0  0
 14 31  1  0  0  0  0
  7 31  1  0  0  0  0
M  END
> <NMREDATA_VERSION>
1.1

> <NMREDATA_LEVEL>
0

> <NMREDATA_SOLVENT>
pyridine-d5

> <NMREDATA_TEMPERATURE>
255

> <NMREDATA_FORMULA>
C31H32ClN2PRh

> <NMREDATA_SMILES>
Cl[RhH2](P(Cc1ccccc1)(Cc1ccccc1)Cc1ccccc1)(c1ccncc1)c1ccncc1

> <NMREDATA_ASSIGNMENT>
Rh28, 856.00, 28

> <NMREDATA_1D_103Rh>
856.00, L=Rh28

$$$$

  ACD/LABS03292412432D

 35 39  0  0  0  0  0  0  0  0  1 V2000
   22.3028  -13.2075    0.0000 C    0  0  0  0  0  0  0  0  0  0  0  0
   23.3287  -12.3595    0.0000 C    0  0  0  0  0  0  0  0  0  0  0  0
   22.5364  -14.5162    0.0000 C    0  0  0  0  0  0  0  0  0  0  0  0
   24.5710  -12.8089    0.0000 N    0  0  0  0  0  0  0  0  0  0  0  0
   23.7834  -14.9736    0.0000 C    0  0  0  0  0  0  0  0  0  0  0  0
   24.8048  -14.1179    0.0000 C    0  0  0  0  0  0  0  0  0  0  0  0
   16.4971  -11.7167    0.0000 C    0  0  0  0  0  0  0  0  0  0  0  0
   15.3453  -12.3817    0.0000 C    0  0  0  0  0  0  0  0  0  0  0  0
   17.6494  -12.3824    0.0000 C    0  0  0  0  0  0  0  0  0  0  0  0
   15.3458  -13.7124    0.0000 C    0  0  0  0  0  0  0  0  0  0  0  0
   17.6497  -13.7131    0.0000 C    0  0  0  0  0  0  0  0  0  0  0  0
   16.4979  -14.3781    0.0000 C    0  0  0  0  0  0  0  0  0  0  0  0
   20.7909  -13.2309    0.0000 C    0  0  0  0  0  0  0  0  0  0  0  0
   21.4565  -12.0785    0.0000 C    0  0  0  0  0  0  0  0  0  0  0  0
   19.4601  -13.2311    0.0000 C    0  0  0  0  0  0  0  0  0  0  0  0
   20.7915  -10.9267    0.0000 C    0  0  0  0  0  0  0  0  0  0  0  0
   18.7951  -12.0793    0.0000 C    0  0  0  0  0  0  0  0  0  0  0  0
   19.4607  -10.9270    0.0000 C    0  0  0  0  0  0  0  0  0  0  0  0
   18.4051  -16.6351    0.0000 C    0  0  0  0  0  0  0  0  0  0  0  0
   17.5485  -17.6520    0.0000 C    0  0  0  0  0  0  0  0  0  0  0  0
   17.9455  -15.3957    0.0000 C    0  0  0  0  0  0  0  0  0  0  0  0
   16.2398  -17.4244    0.0000 C    0  0  0  0  0  0  0  0  0  0  0  0
   16.6367  -15.1685    0.0000 C    0  0  0  0  0  0  0  0  0  0  0  0
   15.7800  -16.1851    0.0000 C    0  0  0  0  0  0  0  0  0  0  0  0
   21.5107  -15.3645    0.0000 Rh   0  0  0  0  0  0  0  0  0  0  0  0
   22.7623  -15.8295    0.0000 H    0  0  0  0  0  0  0  0  0  0  0  0
   21.2894  -14.0585    0.0000 H    0  0  0  0  0  0  0  0  0  0  0  0
   18.8022  -14.3790    0.0000 P    0  0  0  0  0  0  0  0  0  0  0  0
   21.7366  -16.6777    0.0000 Cl   0  0  0  0  0  0  0  0  0  0  0  0
   20.8529  -16.5119    0.0000 C    0  0  0  0  0  0  0  0  0  0  0  0
   21.5103  -17.6685    0.0000 C    0  0  0  0  0  0  0  0  0  0  0  0
   19.5175  -16.5049    0.0000 C    0  0  0  0  0  0  0  0  0  0  0  0
   20.8401  -18.8128    0.0000 C    0  0  0  0  0  0  0  0  0  0  0  0
   18.8475  -17.6495    0.0000 C    0  0  0  0  0  0  0  0  0  0  0  0
   19.5047  -18.8058    0.0000 N    0  0  0  0  0  0  0  0  0  0  0  0
  1  2  1  0  0  0  0
  1  3  2  0  0  0  0
  2  4  2  0  0  0  0
  3  5  1  0  0  0  0
  4  6  1  0  0  0  0
  5  6  2  0  0  0  0
  7  8  1  0  0  0  0
  7  9  1  0  0  0  0
  8 10  1  0  0  0  0
  9 11  1  0  0  0  0
 10 12  1  0  0  0  0
 11 12  1  0  0  0  0
 13 14  1  0  0  0  0
 13 15  1  0  0  0  0
 14 16  1  0  0  0  0
 15 17  1  0  0  0  0
 16 18  1  0  0  0  0
 17 18  1  0  0  0  0
 19 20  1  0  0  0  0
 19 21  1  0  0  0  0
 20 22  1  0  0  0  0
 21 23  1  0  0  0  0
 22 24  1  0  0  0  0
 23 24  1  0  0  0  0
 25 26  1  0  0  0  0
 25 27  1  0  0  0  0
 25 28  1  0  0  0  0
 21 28  1  0  0  0  0
 15 28  1  0  0  0  0
 11 28  1  0  0  0  0
 25 29  1  0  0  0  0
 30 31  1  0  0  0  0
 30 32  2  0  0  0  0
 31 33  2  0  0  0  0
 32 34  1  0  0  0  0
 33 35  1  0  0  0  0
 34 35  2  0  0  0  0
 25 30  1  0  0  0  0
  3 25  1  0  0  0  0
M  END
> <NMREDATA_VERSION>
1.1

> <NMREDATA_LEVEL>
0

> <NMREDATA_SOLVENT>
pyridine-d5

> <NMREDATA_TEMPERATURE>
235

> <NMREDATA_FORMULA>
C28H44ClN2PRh

> <NMREDATA_SMILES>
Cl[RhH2](P(C1CCCCC1)(C1CCCCC1)C1CCCCC1)(c1ccncc1)c1ccncc1

> <NMREDATA_ASSIGNMENT>
Rh25, 408.00, 25

> <NMREDATA_1D_103Rh>
408.00, L=Rh25

$$$$

  ACD/LABS03292412452D

 51 57  0  0  0  0  0  0  0  0  1 V2000
   17.0900  -12.8144    0.0000 C    0  0  0  0  0  0  0  0  0  0  0  0
   17.3384  -14.1182    0.0000 C    0  0  0  0  0  0  0  0  0  0  0  0
   18.1011  -11.9453    0.0000 C    0  0  0  0  0  0  0  0  0  0  0  0
   18.5980  -14.5437    0.0000 C    0  0  0  0  0  0  0  0  0  0  0  0
   19.3607  -12.3801    0.0000 C    0  0  0  0  0  0  0  0  0  0  0  0
   19.6088  -13.6839    0.0000 C    0  0  0  0  0  0  0  0  0  0  0  0
   20.9304   -9.6750    0.0000 C    0  0  0  0  0  0  0  0  0  0  0  0
   19.6709   -9.2406    0.0000 C    0  0  0  0  0  0  0  0  0  0  0  0
   21.1874  -10.9788    0.0000 C    0  0  0  0  0  0  0  0  0  0  0  0
   18.6686  -10.1186    0.0000 C    0  0  0  0  0  0  0  0  0  0  0  0
   20.1766  -11.8568    0.0000 C    0  0  0  0  0  0  0  0  0  0  0  0
   18.9260  -11.4221    0.0000 C    0  0  0  0  0  0  0  0  0  0  0  0
   17.3473  -14.9427    0.0000 C    0  0  0  0  0  0  0  0  0  0  0  0
   16.2120  -15.6255    0.0000 C    0  0  0  0  0  0  0  0  0  0  0  0
   18.5091  -15.5902    0.0000 C    0  0  0  0  0  0  0  0  0  0  0  0
   16.2298  -16.9561    0.0000 C    0  0  0  0  0  0  0  0  0  0  0  0
   18.5359  -16.9204    0.0000 C    0  0  0  0  0  0  0  0  0  0  0  0
   17.3916  -17.6032    0.0000 C    0  0  0  0  0  0  0  0  0  0  0  0
   24.9565  -14.3577    0.0000 C    0  0  0  0  0  0  0  0  0  0  0  0
   26.1982  -13.8788    0.0000 C    0  0  0  0  0  0  0  0  0  0  0  0
   23.9189  -13.5240    0.0000 C    0  0  0  0  0  0  0  0  0  0  0  0
   26.4020  -12.5664    0.0000 C    0  0  0  0  0  0  0  0  0  0  0  0
   24.1227  -12.2116    0.0000 C    0  0  0  0  0  0  0  0  0  0  0  0
   25.3644  -11.7326    0.0000 C    0  0  0  0  0  0  0  0  0  0  0  0
   21.7017  -15.7940    0.0000 Rh   0  0  0  0  0  0  0  0  0  0  0  0
   21.0546  -16.9561    0.0000 H    0  0  0  0  0  0  0  0  0  0  0  0
   23.0052  -16.0071    0.0000 H    0  0  0  0  0  0  0  0  0  0  0  0
   21.2231  -14.5526    0.0000 P    0  0  0  0  0  0  0  0  0  0  0  0
   22.1629  -17.0357    0.0000 C    0  0  0  0  0  0  0  0  0  0  0  0
   21.1699  -17.9137    0.0000 C    0  0  0  0  0  0  0  0  0  0  0  0
   23.4221  -17.4704    0.0000 C    0  0  0  0  0  0  0  0  0  0  0  0
   21.4269  -19.2176    0.0000 C    0  0  0  0  0  0  0  0  0  0  0  0
   23.6794  -18.7739    0.0000 C    0  0  0  0  0  0  0  0  0  0  0  0
   22.6772  -19.6519    0.0000 N    0  0  0  0  0  0  0  0  0  0  0  0
   22.3313  -14.6322    0.0000 P    0  0  0  0  0  0  0  0  0  0  0  0
   24.8676  -16.0424    0.0000 C    0  0  0  0  0  0  0  0  0  0  0  0
   26.0119  -15.3596    0.0000 C    0  0  0  0  0  0  0  0  0  0  0  0
   24.8944  -17.3726    0.0000 C    0  0  0  0  0  0  0  0  0  0  0  0
   27.1737  -16.0071    0.0000 C    0  0  0  0  0  0  0  0  0  0  0  0
   26.0562  -18.0201    0.0000 C    0  0  0  0  0  0  0  0  0  0  0  0
   27.1915  -17.3373    0.0000 C    0  0  0  0  0  0  0  0  0  0  0  0
   23.2890  -11.9011    0.0000 C    0  0  0  0  0  0  0  0  0  0  0  0
   24.5307  -11.4310    0.0000 C    0  0  0  0  0  0  0  0  0  0  0  0
   22.2603  -11.0587    0.0000 C    0  0  0  0  0  0  0  0  0  0  0  0
   24.7434  -10.1186    0.0000 C    0  0  0  0  0  0  0  0  0  0  0  0
   22.4731   -9.7460    0.0000 C    0  0  0  0  0  0  0  0  0  0  0  0
   23.7148   -9.2759    0.0000 C    0  0  0  0  0  0  0  0  0  0  0  0
   20.3893  -16.0424    0.0000 S    0  0  0  0  0  0  0  0  0  0  0  0
   19.7419  -17.2042    0.0000 C    0  0  0  0  0  0  0  0  0  0  0  0
   20.4247  -18.3485    0.0000 C    0  0  0  0  0  0  0  0  0  0  0  0
   19.7772  -19.5102    0.0000 C    0  0  0  0  0  0  0  0  0  0  0  0
  1  2  1  0  0  0  0
  1  3  2  0  0  0  0
  2  4  2  0  0  0  0
  3  5  1  0  0  0  0
  4  6  1  0  0  0  0
  5  6  2  0  0  0  0
  7  8  2  0  0  0  0
  7  9  1  0  0  0  0
  8 10  1  0  0  0  0
  9 11  2  0  0  0  0
 10 12  2  0  0  0  0
 11 12  1  0  0  0  0
 13 14  2  0  0  0  0
 13 15  1  0  0  0  0
 14 16  1  0  0  0  0
 15 17  2  0  0  0  0
 16 18  2  0  0  0  0
 17 18  1  0  0  0  0
 19 20  2  0  0  0  0
 19 21  1  0  0  0  0
 20 22  1  0  0  0  0
 21 23  2  0  0  0  0
 22 24  2  0  0  0  0
 23 24  1  0  0  0  0
 25 26  1  0  0  0  0
 25 27  1  0  0  0  0
 25 28  1  0  0  0  0
 21 28  1  0  0  0  0
 15 28  1  0  0  0  0
 11 28  1  0  0  0  0
 29 30  1  0  0  0  0
 29 31  2  0  0  0  0
 30 32  2  0  0  0  0
 31 33  1  0  0  0  0
 32 34  1  0  0  0  0
 33 34  2  0  0  0  0
 25 29  1  0  0  0  0
 25 35  1  0  0  0  0
 36 37  1  0  0  0  0
 36 38  2  0  0  0  0
 37 39  2  0  0  0  0
 38 40  1  0  0  0  0
 39 41  1  0  0  0  0
 40 41  2  0  0  0  0
 35 36  1  0  0  0  0
 42 43  1  0  0  0  0
 42 44  2  0  0  0  0
 43 45  2  0  0  0  0
 44 46  1  0  0  0  0
 45 47  1  0  0  0  0
 46 47  2  0  0  0  0
 35 42  1  0  0  0  0
  6 35  1  0  0  0  0
 25 48  1  0  0  0  0
 48 49  1  0  0  0  0
 49 50  1  0  0  0  0
 50 51  1  0  0  0  0
M  END
> <NMREDATA_VERSION>
1.1

> <NMREDATA_LEVEL>
0

> <NMREDATA_SOLVENT>
toluene-d8

> <NMREDATA_TEMPERATURE>
248

> <NMREDATA_FORMULA>
C44H45NP2RhS

> <NMREDATA_SMILES>
CCCS[RhH2](P(c1ccccc1)(c1ccccc1)c1ccccc1)(P(c1ccccc1)(c1ccccc1)c1ccccc1)c1ccncc1

> <NMREDATA_ASSIGNMENT>
Rh25, 223.00, 25

> <NMREDATA_1D_103Rh>
223.00, L=Rh25

$$$$

  ACD/LABS03292412452D

 51 57  0  0  0  0  0  0  0  0  1 V2000
   17.0900  -12.8144    0.0000 C    0  0  0  0  0  0  0  0  0  0  0  0
   17.3384  -14.1182    0.0000 C    0  0  0  0  0  0  0  0  0  0  0  0
   18.1011  -11.9453    0.0000 C    0  0  0  0  0  0  0  0  0  0  0  0
   18.5980  -14.5437    0.0000 C    0  0  0  0  0  0  0  0  0  0  0  0
   19.3607  -12.3801    0.0000 C    0  0  0  0  0  0  0  0  0  0  0  0
   19.6088  -13.6839    0.0000 C    0  0  0  0  0  0  0  0  0  0  0  0
   20.9304   -9.6750    0.0000 C    0  0  0  0  0  0  0  0  0  0  0  0
   19.6709   -9.2406    0.0000 C    0  0  0  0  0  0  0  0  0  0  0  0
   21.1874  -10.9788    0.0000 C    0  0  0  0  0  0  0  0  0  0  0  0
   18.6686  -10.1186    0.0000 C    0  0  0  0  0  0  0  0  0  0  0  0
   20.1766  -11.8568    0.0000 C    0  0  0  0  0  0  0  0  0  0  0  0
   18.9260  -11.4221    0.0000 C    0  0  0  0  0  0  0  0  0  0  0  0
   17.3473  -14.9427    0.0000 C    0  0  0  0  0  0  0  0  0  0  0  0
   16.2120  -15.6255    0.0000 C    0  0  0  0  0  0  0  0  0  0  0  0
   18.5091  -15.5902    0.0000 C    0  0  0  0  0  0  0  0  0  0  0  0
   16.2298  -16.9561    0.0000 C    0  0  0  0  0  0  0  0  0  0  0  0
   18.5359  -16.9204    0.0000 C    0  0  0  0  0  0  0  0  0  0  0  0
   17.3916  -17.6032    0.0000 C    0  0  0  0  0  0  0  0  0  0  0  0
   24.9565  -14.3577    0.0000 C    0  0  0  0  0  0  0  0  0  0  0  0
   26.1982  -13.8788    0.0000 C    0  0  0  0  0  0  0  0  0  0  0  0
   23.9189  -13.5240    0.0000 C    0  0  0  0  0  0  0  0  0  0  0  0
   26.4020  -12.5664    0.0000 C    0  0  0  0  0  0  0  0  0  0  0  0
   24.1227  -12.2116    0.0000 C    0  0  0  0  0  0  0  0  0  0  0  0
   25.3644  -11.7326    0.0000 C    0  0  0  0  0  0  0  0  0  0  0  0
   21.7017  -15.7940    0.0000 Rh   0  0  0  0  0  0  0  0  0  0  0  0
   21.0546  -16.9561    0.0000 H    0  0  0  0  0  0  0  0  0  0  0  0
   23.0052  -16.0071    0.0000 H    0  0  0  0  0  0  0  0  0  0  0  0
   21.2231  -14.5526    0.0000 P    0  0  0  0  0  0  0  0  0  0  0  0
   22.1629  -17.0357    0.0000 C    0  0  0  0  0  0  0  0  0  0  0  0
   21.1699  -17.9137    0.0000 C    0  0  0  0  0  0  0  0  0  0  0  0
   23.4221  -17.4704    0.0000 C    0  0  0  0  0  0  0  0  0  0  0  0
   21.4269  -19.2176    0.0000 C    0  0  0  0  0  0  0  0  0  0  0  0
   23.6794  -18.7739    0.0000 C    0  0  0  0  0  0  0  0  0  0  0  0
   22.6772  -19.6519    0.0000 N    0  0  0  0  0  0  0  0  0  0  0  0
   22.3313  -14.6322    0.0000 P    0  0  0  0  0  0  0  0  0  0  0  0
   24.8676  -16.0424    0.0000 C    0  0  0  0  0  0  0  0  0  0  0  0
   26.0119  -15.3596    0.0000 C    0  0  0  0  0  0  0  0  0  0  0  0
   24.8944  -17.3726    0.0000 C    0  0  0  0  0  0  0  0  0  0  0  0
   27.1737  -16.0071    0.0000 C    0  0  0  0  0  0  0  0  0  0  0  0
   26.0562  -18.0201    0.0000 C    0  0  0  0  0  0  0  0  0  0  0  0
   27.1915  -17.3373    0.0000 C    0  0  0  0  0  0  0  0  0  0  0  0
   23.2890  -11.9011    0.0000 C    0  0  0  0  0  0  0  0  0  0  0  0
   24.5307  -11.4310    0.0000 C    0  0  0  0  0  0  0  0  0  0  0  0
   22.2603  -11.0587    0.0000 C    0  0  0  0  0  0  0  0  0  0  0  0
   24.7434  -10.1186    0.0000 C    0  0  0  0  0  0  0  0  0  0  0  0
   22.4731   -9.7460    0.0000 C    0  0  0  0  0  0  0  0  0  0  0  0
   23.7148   -9.2759    0.0000 C    0  0  0  0  0  0  0  0  0  0  0  0
   20.3893  -16.0424    0.0000 S    0  0  0  0  0  0  0  0  0  0  0  0
   19.9502  -17.2977    0.0000 C    0  0  0  0  0  0  0  0  0  0  0  0
   20.8178  -18.3056    0.0000 C    0  0  0  0  0  0  0  0  0  0  0  0
   18.6436  -17.5450    0.0000 C    0  0  0  0  0  0  0  0  0  0  0  0
  1  2  1  0  0  0  0
  1  3  2  0  0  0  0
  2  4  2  0  0  0  0
  3  5  1  0  0  0  0
  4  6  1  0  0  0  0
  5  6  2  0  0  0  0
  7  8  2  0  0  0  0
  7  9  1  0  0  0  0
  8 10  1  0  0  0  0
  9 11  2  0  0  0  0
 10 12  2  0  0  0  0
 11 12  1  0  0  0  0
 13 14  2  0  0  0  0
 13 15  1  0  0  0  0
 14 16  1  0  0  0  0
 15 17  2  0  0  0  0
 16 18  2  0  0  0  0
 17 18  1  0  0  0  0
 19 20  2  0  0  0  0
 19 21  1  0  0  0  0
 20 22  1  0  0  0  0
 21 23  2  0  0  0  0
 22 24  2  0  0  0  0
 23 24  1  0  0  0  0
 25 26  1  0  0  0  0
 25 27  1  0  0  0  0
 25 28  1  0  0  0  0
 21 28  1  0  0  0  0
 15 28  1  0  0  0  0
 11 28  1  0  0  0  0
 29 30  1  0  0  0  0
 29 31  2  0  0  0  0
 30 32  2  0  0  0  0
 31 33  1  0  0  0  0
 32 34  1  0  0  0  0
 33 34  2  0  0  0  0
 25 29  1  0  0  0  0
 25 35  1  0  0  0  0
 36 37  1  0  0  0  0
 36 38  2  0  0  0  0
 37 39  2  0  0  0  0
 38 40  1  0  0  0  0
 39 41  1  0  0  0  0
 40 41  2  0  0  0  0
 35 36  1  0  0  0  0
 42 43  1  0  0  0  0
 42 44  2  0  0  0  0
 43 45  2  0  0  0  0
 44 46  1  0  0  0  0
 45 47  1  0  0  0  0
 46 47  2  0  0  0  0
 35 42  1  0  0  0  0
  6 35  1  0  0  0  0
 25 48  1  0  0  0  0
 49 50  1  0  0  0  0
 49 51  1  0  0  0  0
 48 49  1  0  0  0  0
M  END
> <NMREDATA_VERSION>
1.1

> <NMREDATA_LEVEL>
0

> <NMREDATA_SOLVENT>
toluene-d8

> <NMREDATA_TEMPERATURE>
248

> <NMREDATA_FORMULA>
C44H45NP2RhS

> <NMREDATA_SMILES>
CC(S[RhH2](P(c1ccccc1)(c1ccccc1)c1ccccc1)(P(c1ccccc1)(c1ccccc1)c1ccccc1)c1ccncc1)C

> <NMREDATA_ASSIGNMENT>
Rh25, 215.00, 25

> <NMREDATA_1D_103Rh>
215.00, L=Rh25

$$$$

  ACD/LABS03292412452D

 54 61  0  0  0  0  0  0  0  0  1 V2000
   17.0900  -12.8144    0.0000 C    0  0  0  0  0  0  0  0  0  0  0  0
   17.3384  -14.1182    0.0000 C    0  0  0  0  0  0  0  0  0  0  0  0
   18.1011  -11.9453    0.0000 C    0  0  0  0  0  0  0  0  0  0  0  0
   18.5980  -14.5437    0.0000 C    0  0  0  0  0  0  0  0  0  0  0  0
   19.3607  -12.3801    0.0000 C    0  0  0  0  0  0  0  0  0  0  0  0
   19.6088  -13.6839    0.0000 C    0  0  0  0  0  0  0  0  0  0  0  0
   20.9304   -9.6750    0.0000 C    0  0  0  0  0  0  0  0  0  0  0  0
   19.6709   -9.2406    0.0000 C    0  0  0  0  0  0  0  0  0  0  0  0
   21.1874  -10.9788    0.0000 C    0  0  0  0  0  0  0  0  0  0  0  0
   18.6686  -10.1186    0.0000 C    0  0  0  0  0  0  0  0  0  0  0  0
   20.1766  -11.8568    0.0000 C    0  0  0  0  0  0  0  0  0  0  0  0
   18.9260  -11.4221    0.0000 C    0  0  0  0  0  0  0  0  0  0  0  0
   17.3473  -14.9427    0.0000 C    0  0  0  0  0  0  0  0  0  0  0  0
   16.2120  -15.6255    0.0000 C    0  0  0  0  0  0  0  0  0  0  0  0
   18.5091  -15.5902    0.0000 C    0  0  0  0  0  0  0  0  0  0  0  0
   16.2298  -16.9561    0.0000 C    0  0  0  0  0  0  0  0  0  0  0  0
   18.5359  -16.9204    0.0000 C    0  0  0  0  0  0  0  0  0  0  0  0
   17.3916  -17.6032    0.0000 C    0  0  0  0  0  0  0  0  0  0  0  0
   24.9565  -14.3577    0.0000 C    0  0  0  0  0  0  0  0  0  0  0  0
   26.1982  -13.8788    0.0000 C    0  0  0  0  0  0  0  0  0  0  0  0
   23.9189  -13.5240    0.0000 C    0  0  0  0  0  0  0  0  0  0  0  0
   26.4020  -12.5664    0.0000 C    0  0  0  0  0  0  0  0  0  0  0  0
   24.1227  -12.2116    0.0000 C    0  0  0  0  0  0  0  0  0  0  0  0
   25.3644  -11.7326    0.0000 C    0  0  0  0  0  0  0  0  0  0  0  0
   21.7017  -15.7940    0.0000 Rh   0  0  0  0  0  0  0  0  0  0  0  0
   21.0546  -16.9561    0.0000 H    0  0  0  0  0  0  0  0  0  0  0  0
   23.0052  -16.0071    0.0000 H    0  0  0  0  0  0  0  0  0  0  0  0
   21.2231  -14.5526    0.0000 P    0  0  0  0  0  0  0  0  0  0  0  0
   22.1629  -17.0357    0.0000 C    0  0  0  0  0  0  0  0  0  0  0  0
   21.1699  -17.9137    0.0000 C    0  0  0  0  0  0  0  0  0  0  0  0
   23.4221  -17.4704    0.0000 C    0  0  0  0  0  0  0  0  0  0  0  0
   21.4269  -19.2176    0.0000 C    0  0  0  0  0  0  0  0  0  0  0  0
   23.6794  -18.7739    0.0000 C    0  0  0  0  0  0  0  0  0  0  0  0
   22.6772  -19.6519    0.0000 N    0  0  0  0  0  0  0  0  0  0  0  0
   22.3313  -14.6322    0.0000 P    0  0  0  0  0  0  0  0  0  0  0  0
   24.8676  -16.0424    0.0000 C    0  0  0  0  0  0  0  0  0  0  0  0
   26.0119  -15.3596    0.0000 C    0  0  0  0  0  0  0  0  0  0  0  0
   24.8944  -17.3726    0.0000 C    0  0  0  0  0  0  0  0  0  0  0  0
   27.1737  -16.0071    0.0000 C    0  0  0  0  0  0  0  0  0  0  0  0
   26.0562  -18.0201    0.0000 C    0  0  0  0  0  0  0  0  0  0  0  0
   27.1915  -17.3373    0.0000 C    0  0  0  0  0  0  0  0  0  0  0  0
   23.2890  -11.9011    0.0000 C    0  0  0  0  0  0  0  0  0  0  0  0
   24.5307  -11.4310    0.0000 C    0  0  0  0  0  0  0  0  0  0  0  0
   22.2603  -11.0587    0.0000 C    0  0  0  0  0  0  0  0  0  0  0  0
   24.7434  -10.1186    0.0000 C    0  0  0  0  0  0  0  0  0  0  0  0
   22.4731   -9.7460    0.0000 C    0  0  0  0  0  0  0  0  0  0  0  0
   23.7148   -9.2759    0.0000 C    0  0  0  0  0  0  0  0  0  0  0  0
   20.3893  -16.0424    0.0000 S    0  0  0  0  0  0  0  0  0  0  0  0
   19.9502  -17.2976    0.0000 C    0  0  0  0  0  0  0  0  0  0  0  0
   20.8177  -18.3056    0.0000 C    0  0  0  0  0  0  0  0  0  0  0  0
   18.6435  -17.5450    0.0000 C    0  0  0  0  0  0  0  0  0  0  0  0
   20.3785  -19.5609    0.0000 C    0  0  0  0  0  0  0  0  0  0  0  0
   18.2044  -18.8002    0.0000 C    0  0  0  0  0  0  0  0  0  0  0  0
   19.0719  -19.8081    0.0000 C    0  0  0  0  0  0  0  0  0  0  0  0
  1  2  1  0  0  0  0
  1  3  2  0  0  0  0
  2  4  2  0  0  0  0
  3  5  1  0  0  0  0
  4  6  1  0  0  0  0
  5  6  2  0  0  0  0
  7  8  2  0  0  0  0
  7  9  1  0  0  0  0
  8 10  1  0  0  0  0
  9 11  2  0  0  0  0
 10 12  2  0  0  0  0
 11 12  1  0  0  0  0
 13 14  2  0  0  0  0
 13 15  1  0  0  0  0
 14 16  1  0  0  0  0
 15 17  2  0  0  0  0
 16 18  2  0  0  0  0
 17 18  1  0  0  0  0
 19 20  2  0  0  0  0
 19 21  1  0  0  0  0
 20 22  1  0  0  0  0
 21 23  2  0  0  0  0
 22 24  2  0  0  0  0
 23 24  1  0  0  0  0
 25 26  1  0  0  0  0
 25 27  1  0  0  0  0
 25 28  1  0  0  0  0
 21 28  1  0  0  0  0
 15 28  1  0  0  0  0
 11 28  1  0  0  0  0
 29 30  1  0  0  0  0
 29 31  2  0  0  0  0
 30 32  2  0  0  0  0
 31 33  1  0  0  0  0
 32 34  1  0  0  0  0
 33 34  2  0  0  0  0
 25 29  1  0  0  0  0
 25 35  1  0  0  0  0
 36 37  1  0  0  0  0
 36 38  2  0  0  0  0
 37 39  2  0  0  0  0
 38 40  1  0  0  0  0
 39 41  1  0  0  0  0
 40 41  2  0  0  0  0
 35 36  1  0  0  0  0
 42 43  1  0  0  0  0
 42 44  2  0  0  0  0
 43 45  2  0  0  0  0
 44 46  1  0  0  0  0
 45 47  1  0  0  0  0
 46 47  2  0  0  0  0
 35 42  1  0  0  0  0
  6 35  1  0  0  0  0
 25 48  1  0  0  0  0
 49 50  1  0  0  0  0
 49 51  1  0  0  0  0
 50 52  1  0  0  0  0
 51 53  1  0  0  0  0
 52 54  1  0  0  0  0
 53 54  1  0  0  0  0
 48 49  1  0  0  0  0
M  END
> <NMREDATA_VERSION>
1.1

> <NMREDATA_LEVEL>
0

> <NMREDATA_SOLVENT>
toluene-d8

> <NMREDATA_TEMPERATURE>
248

> <NMREDATA_FORMULA>
C47H49NP2RhS

> <NMREDATA_SMILES>
C1CCC(CC1)S[RhH2](P(c1ccccc1)(c1ccccc1)c1ccccc1)(P(c1ccccc1)(c1ccccc1)c1ccccc1)c1ccncc1

> <NMREDATA_ASSIGNMENT>
Rh25, 206.00, 25

> <NMREDATA_1D_103Rh>
206.00, L=Rh25

$$$$

  ACD/LABS03292412462D

 55 62  0  0  0  0  0  0  0  0  1 V2000
   24.3202   -9.8399    0.0000 C    0  0  0  0  0  0  0  0  0  0  0  0
   24.9852  -10.9917    0.0000 C    0  0  0  0  0  0  0  0  0  0  0  0
   22.9902   -9.8399    0.0000 C    0  0  0  0  0  0  0  0  0  0  0  0
   24.3202  -12.1435    0.0000 C    0  0  0  0  0  0  0  0  0  0  0  0
   22.3252  -10.9917    0.0000 C    0  0  0  0  0  0  0  0  0  0  0  0
   22.9902  -12.1435    0.0000 C    0  0  0  0  0  0  0  0  0  0  0  0
   18.3352  -10.9917    0.0000 C    0  0  0  0  0  0  0  0  0  0  0  0
   19.0002   -9.8399    0.0000 C    0  0  0  0  0  0  0  0  0  0  0  0
   19.0002  -12.1435    0.0000 C    0  0  0  0  0  0  0  0  0  0  0  0
   20.3302   -9.8399    0.0000 C    0  0  0  0  0  0  0  0  0  0  0  0
   20.3302  -12.1435    0.0000 C    0  0  0  0  0  0  0  0  0  0  0  0
   20.9952  -10.9917    0.0000 C    0  0  0  0  0  0  0  0  0  0  0  0
   19.8434  -15.2903    0.0000 C    0  0  0  0  0  0  0  0  0  0  0  0
   18.6916  -15.9553    0.0000 C    0  0  0  0  0  0  0  0  0  0  0  0
   19.8434  -13.9603    0.0000 C    0  0  0  0  0  0  0  0  0  0  0  0
   17.5398  -15.2903    0.0000 C    0  0  0  0  0  0  0  0  0  0  0  0
   18.6916  -13.2953    0.0000 C    0  0  0  0  0  0  0  0  0  0  0  0
   17.5398  -13.9603    0.0000 C    0  0  0  0  0  0  0  0  0  0  0  0
   22.1471  -11.3003    0.0000 C    0  0  0  0  0  0  0  0  0  0  0  0
   23.2989  -10.6353    0.0000 C    0  0  0  0  0  0  0  0  0  0  0  0
   22.1471  -12.6303    0.0000 C    0  0  0  0  0  0  0  0  0  0  0  0
   24.4507  -11.3003    0.0000 C    0  0  0  0  0  0  0  0  0  0  0  0
   23.2989  -13.2953    0.0000 C    0  0  0  0  0  0  0  0  0  0  0  0
   24.4507  -12.6303    0.0000 C    0  0  0  0  0  0  0  0  0  0  0  0
   21.6602  -14.4471    0.0000 Rh   0  0  0  0  0  0  0  0  0  0  0  0
   20.3302  -14.4471    0.0000 H    0  0  0  0  0  0  0  0  0  0  0  0
   22.9902  -14.4471    0.0000 H    0  0  0  0  0  0  0  0  0  0  0  0
   20.9952  -13.2953    0.0000 P    0  0  0  0  0  0  0  0  0  0  0  0
   22.3252  -15.5989    0.0000 C    0  0  0  0  0  0  0  0  0  0  0  0
   23.6552  -15.5989    0.0000 C    0  0  0  0  0  0  0  0  0  0  0  0
   21.6602  -16.7507    0.0000 C    0  0  0  0  0  0  0  0  0  0  0  0
   24.3202  -16.7507    0.0000 C    0  0  0  0  0  0  0  0  0  0  0  0
   22.3252  -17.9025    0.0000 C    0  0  0  0  0  0  0  0  0  0  0  0
   23.6552  -17.9025    0.0000 N    0  0  0  0  0  0  0  0  0  0  0  0
   22.3252  -13.2953    0.0000 P    0  0  0  0  0  0  0  0  0  0  0  0
   21.1734  -12.6303    0.0000 C    0  0  0  0  0  0  0  0  0  0  0  0
   20.0216  -13.2953    0.0000 C    0  0  0  0  0  0  0  0  0  0  0  0
   21.1734  -11.3003    0.0000 C    0  0  0  0  0  0  0  0  0  0  0  0
   18.8698  -12.6303    0.0000 C    0  0  0  0  0  0  0  0  0  0  0  0
   20.0216  -10.6353    0.0000 C    0  0  0  0  0  0  0  0  0  0  0  0
   18.8698  -11.3003    0.0000 C    0  0  0  0  0  0  0  0  0  0  0  0
   23.4771  -13.9603    0.0000 C    0  0  0  0  0  0  0  0  0  0  0  0
   24.6289  -13.2953    0.0000 C    0  0  0  0  0  0  0  0  0  0  0  0
   23.4771  -15.2903    0.0000 C    0  0  0  0  0  0  0  0  0  0  0  0
   25.7807  -13.9603    0.0000 C    0  0  0  0  0  0  0  0  0  0  0  0
   24.6289  -15.9553    0.0000 C    0  0  0  0  0  0  0  0  0  0  0  0
   25.7807  -15.2903    0.0000 C    0  0  0  0  0  0  0  0  0  0  0  0
   20.9952  -15.5989    0.0000 S    0  0  0  0  0  0  0  0  0  0  0  0
   19.6652  -15.5989    0.0000 C    0  0  0  0  0  0  0  0  0  0  0  0
   19.0002  -16.7507    0.0000 C    0  0  0  0  0  0  0  0  0  0  0  0
   19.6652  -17.9025    0.0000 C    0  0  0  0  0  0  0  0  0  0  0  0
   17.6702  -16.7507    0.0000 C    0  0  0  0  0  0  0  0  0  0  0  0
   19.0002  -19.0544    0.0000 C    0  0  0  0  0  0  0  0  0  0  0  0
   17.0052  -17.9025    0.0000 C    0  0  0  0  0  0  0  0  0  0  0  0
   17.6702  -19.0544    0.0000 C    0  0  0  0  0  0  0  0  0  0  0  0
  1  2  1  0  0  0  0
  1  3  2  0  0  0  0
  2  4  2  0  0  0  0
  3  5  1  0  0  0  0
  4  6  1  0  0  0  0
  5  6  2  0  0  0  0
  7  8  2  0  0  0  0
  7  9  1  0  0  0  0
  8 10  1  0  0  0  0
  9 11  2  0  0  0  0
 10 12  2  0  0  0  0
 11 12  1  0  0  0  0
 13 14  2  0  0  0  0
 13 15  1  0  0  0  0
 14 16  1  0  0  0  0
 15 17  2  0  0  0  0
 16 18  2  0  0  0  0
 17 18  1  0  0  0  0
 19 20  2  0  0  0  0
 19 21  1  0  0  0  0
 20 22  1  0  0  0  0
 21 23  2  0  0  0  0
 22 24  2  0  0  0  0
 23 24  1  0  0  0  0
 25 26  1  0  0  0  0
 25 27  1  0  0  0  0
 25 28  1  0  0  0  0
 21 28  1  0  0  0  0
 15 28  1  0  0  0  0
 11 28  1  0  0  0  0
 29 30  1  0  0  0  0
 29 31  2  0  0  0  0
 30 32  2  0  0  0  0
 31 33  1  0  0  0  0
 32 34  1  0  0  0  0
 33 34  2  0  0  0  0
 25 29  1  0  0  0  0
 25 35  1  0  0  0  0
 36 37  1  0  0  0  0
 36 38  2  0  0  0  0
 37 39  2  0  0  0  0
 38 40  1  0  0  0  0
 39 41  1  0  0  0  0
 40 41  2  0  0  0  0
 35 36  1  0  0  0  0
 42 43  1  0  0  0  0
 42 44  2  0  0  0  0
 43 45  2  0  0  0  0
 44 46  1  0  0  0  0
 45 47  1  0  0  0  0
 46 47  2  0  0  0  0
 35 42  1  0  0  0  0
  6 35  1  0  0  0  0
 25 48  1  0  0  0  0
 48 49  1  0  0  0  0
 50 51  1  0  0  0  0
 50 52  2  0  0  0  0
 51 53  2  0  0  0  0
 52 54  1  0  0  0  0
 53 55  1  0  0  0  0
 54 55  2  0  0  0  0
 49 50  1  0  0  0  0
M  END
> <NMREDATA_VERSION>
1.1

> <NMREDATA_LEVEL>
0

> <NMREDATA_SOLVENT>
toluene-d8

> <NMREDATA_TEMPERATURE>
248

> <NMREDATA_FORMULA>
C48H45NP2RhS

> <NMREDATA_SMILES>
c1ccc(cc1)CS[RhH2](P(c1ccccc1)(c1ccccc1)c1ccccc1)(P(c1ccccc1)(c1ccccc1)c1ccccc1)c1ccncc1

> <NMREDATA_ASSIGNMENT>
Rh25, 219.00, 25

> <NMREDATA_1D_103Rh>
219.00, L=Rh25

$$$$

  ACD/LABS03292412462D

 54 61  0  0  0  0  0  0  0  0  1 V2000
   25.8122  -17.1097    0.0000 C    0  0  0  0  0  0  0  0  0  0  0  0
   26.2689  -18.3620    0.0000 C    0  0  0  0  0  0  0  0  0  0  0  0
   26.6692  -16.0929    0.0000 C    0  0  0  0  0  0  0  0  0  0  0  0
   27.5781  -18.5895    0.0000 C    0  0  0  0  0  0  0  0  0  0  0  0
   27.9784  -16.3204    0.0000 C    0  0  0  0  0  0  0  0  0  0  0  0
   28.4349  -17.5722    0.0000 C    0  0  0  0  0  0  0  0  0  0  0  0
   21.4857  -13.4837    0.0000 C    0  0  0  0  0  0  0  0  0  0  0  0
   20.2339  -13.9402    0.0000 C    0  0  0  0  0  0  0  0  0  0  0  0
   22.5030  -14.3405    0.0000 C    0  0  0  0  0  0  0  0  0  0  0  0
   20.0142  -15.2448    0.0000 C    0  0  0  0  0  0  0  0  0  0  0  0
   22.2707  -15.6414    0.0000 C    0  0  0  0  0  0  0  0  0  0  0  0
   21.0267  -16.0933    0.0000 C    0  0  0  0  0  0  0  0  0  0  0  0
   21.5218   -8.7206    0.0000 C    0  0  0  0  0  0  0  0  0  0  0  0
   20.2128   -8.4935    0.0000 C    0  0  0  0  0  0  0  0  0  0  0  0
   21.9785   -9.9729    0.0000 C    0  0  0  0  0  0  0  0  0  0  0  0
   19.3558   -9.5104    0.0000 C    0  0  0  0  0  0  0  0  0  0  0  0
   21.1217  -10.9901    0.0000 C    0  0  0  0  0  0  0  0  0  0  0  0
   19.8125  -10.7626    0.0000 C    0  0  0  0  0  0  0  0  0  0  0  0
   18.6370  -14.5445    0.0000 C    0  0  0  0  0  0  0  0  0  0  0  0
   17.3848  -15.0012    0.0000 C    0  0  0  0  0  0  0  0  0  0  0  0
   18.8645  -13.2353    0.0000 C    0  0  0  0  0  0  0  0  0  0  0  0
   16.3679  -14.1441    0.0000 C    0  0  0  0  0  0  0  0  0  0  0  0
   17.8472  -12.3785    0.0000 C    0  0  0  0  0  0  0  0  0  0  0  0
   16.5954  -12.8350    0.0000 C    0  0  0  0  0  0  0  0  0  0  0  0
   23.7466  -13.0181    0.0000 C    0  0  0  0  0  0  0  0  0  0  0  0
   25.0563  -12.7845    0.0000 C    0  0  0  0  0  0  0  0  0  0  0  0
   22.8875  -12.0086    0.0000 C    0  0  0  0  0  0  0  0  0  0  0  0
   25.5094  -11.5291    0.0000 C    0  0  0  0  0  0  0  0  0  0  0  0
   23.3408  -10.7536    0.0000 C    0  0  0  0  0  0  0  0  0  0  0  0
   24.6499  -10.5199    0.0000 C    0  0  0  0  0  0  0  0  0  0  0  0
   23.6508  -17.9074    0.0000 Rh   0  0  0  0  0  0  0  0  0  0  0  0
   24.9597  -18.1345    0.0000 H    0  0  0  0  0  0  0  0  0  0  0  0
   22.9848  -19.0598    0.0000 H    0  0  0  0  0  0  0  0  0  0  0  0
   21.5782  -12.2420    0.0000 P    0  0  0  0  0  0  0  0  0  0  0  0
   24.3158  -19.0593    0.0000 C    0  0  0  0  0  0  0  0  0  0  0  0
   25.6250  -19.2868    0.0000 C    0  0  0  0  0  0  0  0  0  0  0  0
   23.4590  -20.0765    0.0000 C    0  0  0  0  0  0  0  0  0  0  0  0
   26.0817  -20.5390    0.0000 C    0  0  0  0  0  0  0  0  0  0  0  0
   23.9236  -21.3242    0.0000 C    0  0  0  0  0  0  0  0  0  0  0  0
   25.2247  -21.5559    0.0000 N    0  0  0  0  0  0  0  0  0  0  0  0
   20.7992  -17.4025    0.0000 P    0  0  0  0  0  0  0  0  0  0  0  0
   20.2995  -20.2621    0.0000 C    0  0  0  0  0  0  0  0  0  0  0  0
   19.0551  -20.7143    0.0000 C    0  0  0  0  0  0  0  0  0  0  0  0
   21.3242  -21.1146    0.0000 C    0  0  0  0  0  0  0  0  0  0  0  0
   18.8198  -22.0280    0.0000 C    0  0  0  0  0  0  0  0  0  0  0  0
   21.0967  -22.4237    0.0000 C    0  0  0  0  0  0  0  0  0  0  0  0
   19.8445  -22.8804    0.0000 C    0  0  0  0  0  0  0  0  0  0  0  0
   17.9446  -17.9037    0.0000 C    0  0  0  0  0  0  0  0  0  0  0  0
   17.4870  -19.1513    0.0000 C    0  0  0  0  0  0  0  0  0  0  0  0
   17.0932  -16.8903    0.0000 C    0  0  0  0  0  0  0  0  0  0  0  0
   16.1733  -19.3772    0.0000 C    0  0  0  0  0  0  0  0  0  0  0  0
   15.7792  -17.1164    0.0000 C    0  0  0  0  0  0  0  0  0  0  0  0
   15.3259  -18.3714    0.0000 C    0  0  0  0  0  0  0  0  0  0  0  0
   24.5033  -16.8826    0.0000 S    0  0  0  0  0  0  0  0  0  0  0  0
  1  2  1  0  0  0  0
  1  3  2  0  0  0  0
  2  4  2  0  0  0  0
  3  5  1  0  0  0  0
  4  6  1  0  0  0  0
  5  6  2  0  0  0  0
  7  8  1  0  0  0  0
  7  9  2  0  0  0  0
  8 10  2  0  0  0  0
  9 11  1  0  0  0  0
 10 12  1  0  0  0  0
 11 12  2  0  0  0  0
 13 14  2  0  0  0  0
 13 15  1  0  0  0  0
 14 16  1  0  0  0  0
 15 17  2  0  0  0  0
 16 18  2  0  0  0  0
 17 18  1  0  0  0  0
 19 20  2  0  0  0  0
 19 21  1  0  0  0  0
 20 22  1  0  0  0  0
 21 23  2  0  0  0  0
 22 24  2  0  0  0  0
 23 24  1  0  0  0  0
 25 26  2  0  0  0  0
 25 27  1  0  0  0  0
 26 28  1  0  0  0  0
 27 29  2  0  0  0  0
 28 30  2  0  0  0  0
 29 30  1  0  0  0  0
 31 32  1  0  0  0  0
 31 33  1  0  0  0  0
 31 34  1  0  0  0  0
 27 34  1  0  0  0  0
 21 34  1  0  0  0  0
 17 34  1  0  0  0  0
 35 36  1  0  0  0  0
 35 37  2  0  0  0  0
 36 38  2  0  0  0  0
 37 39  1  0  0  0  0
 38 40  1  0  0  0  0
 39 40  2  0  0  0  0
 31 35  1  0  0  0  0
 31 41  1  0  0  0  0
 42 43  1  0  0  0  0
 42 44  2  0  0  0  0
 43 45  2  0  0  0  0
 44 46  1  0  0  0  0
 45 47  1  0  0  0  0
 46 47  2  0  0  0  0
 41 42  1  0  0  0  0
 48 49  1  0  0  0  0
 48 50  2  0  0  0  0
 49 51  2  0  0  0  0
 50 52  1  0  0  0  0
 51 53  1  0  0  0  0
 52 53  2  0  0  0  0
 41 48  1  0  0  0  0
 12 41  1  0  0  0  0
 31 54  1  0  0  0  0
  1 54  1  0  0  0  0
M  END
> <NMREDATA_VERSION>
1.1

> <NMREDATA_LEVEL>
0

> <NMREDATA_SOLVENT>
toluene-d8

> <NMREDATA_TEMPERATURE>
248

> <NMREDATA_FORMULA>
C47H43NP2RhS

> <NMREDATA_SMILES>
c1ccc(cc1)S[RhH2](P(c1ccccc1)(c1ccccc1)c1ccccc1)(P(c1ccccc1)(c1ccccc1)c1ccccc1)c1ccncc1

> <NMREDATA_ASSIGNMENT>
Rh31, 222.00, 31

> <NMREDATA_1D_103Rh>
222.00, L=Rh31

$$$$

  ACD/LABS03292412472D

 67 76  0  0  0  0  0  0  0  0  1 V2000
   27.2707  -19.5031    0.0000 C    0  0  0  0  0  0  0  0  0  0  0  0
   27.7142  -20.7535    0.0000 C    0  0  0  0  0  0  0  0  0  0  0  0
   25.9585  -19.2636    0.0000 C    0  0  0  0  0  0  0  0  0  0  0  0
   26.8628  -21.7734    0.0000 C    0  0  0  0  0  0  0  0  0  0  0  0
   25.0979  -20.2836    0.0000 C    0  0  0  0  0  0  0  0  0  0  0  0
   25.5505  -21.5339    0.0000 C    0  0  0  0  0  0  0  0  0  0  0  0
   15.8849  -18.1731    0.0000 C    0  0  0  0  0  0  0  0  0  0  0  0
   15.4414  -16.9228    0.0000 C    0  0  0  0  0  0  0  0  0  0  0  0
   17.1971  -18.4035    0.0000 C    0  0  0  0  0  0  0  0  0  0  0  0
   16.2928  -15.9120    0.0000 C    0  0  0  0  0  0  0  0  0  0  0  0
   18.0577  -17.3932    0.0000 C    0  0  0  0  0  0  0  0  0  0  0  0
   17.6051  -16.1424    0.0000 C    0  0  0  0  0  0  0  0  0  0  0  0
   18.4388  -18.1026    0.0000 C    0  0  0  0  0  0  0  0  0  0  0  0
   17.7736  -19.2459    0.0000 C    0  0  0  0  0  0  0  0  0  0  0  0
   19.7688  -18.1026    0.0000 C    0  0  0  0  0  0  0  0  0  0  0  0
   18.4388  -20.3988    0.0000 C    0  0  0  0  0  0  0  0  0  0  0  0
   20.4340  -19.2459    0.0000 C    0  0  0  0  0  0  0  0  0  0  0  0
   19.7688  -20.3988    0.0000 C    0  0  0  0  0  0  0  0  0  0  0  0
   22.5440  -21.4096    0.0000 C    0  0  0  0  0  0  0  0  0  0  0  0
   22.3222  -22.7218    0.0000 C    0  0  0  0  0  0  0  0  0  0  0  0
   21.5336  -20.5581    0.0000 C    0  0  0  0  0  0  0  0  0  0  0  0
   21.0815  -23.1744    0.0000 C    0  0  0  0  0  0  0  0  0  0  0  0
   20.2924  -21.0107    0.0000 C    0  0  0  0  0  0  0  0  0  0  0  0
   20.0616  -22.3230    0.0000 C    0  0  0  0  0  0  0  0  0  0  0  0
   22.9078  -17.2597    0.0000 C    0  0  0  0  0  0  0  0  0  0  0  0
   22.9078  -15.9297    0.0000 C    0  0  0  0  0  0  0  0  0  0  0  0
   21.7549  -17.9250    0.0000 C    0  0  0  0  0  0  0  0  0  0  0  0
   21.7549  -15.2645    0.0000 C    0  0  0  0  0  0  0  0  0  0  0  0
   20.6116  -17.2597    0.0000 C    0  0  0  0  0  0  0  0  0  0  0  0
   20.6116  -15.9297    0.0000 C    0  0  0  0  0  0  0  0  0  0  0  0
   23.0672  -19.0155    0.0000 Rh   0  0  0  0  0  0  0  0  0  0  0  0
   24.0871  -19.8756    0.0000 H    0  0  0  0  0  0  0  0  0  0  0  0
   23.5284  -17.7743    0.0000 H    0  0  0  0  0  0  0  0  0  0  0  0
   21.7549  -19.2459    0.0000 P    0  0  0  0  0  0  0  0  0  0  0  0
   25.5861  -17.5880    0.0000 C    0  0  0  0  0  0  0  0  0  0  0  0
   25.5947  -16.2580    0.0000 C    0  0  0  0  0  0  0  0  0  0  0  0
   26.7385  -18.2619    0.0000 C    0  0  0  0  0  0  0  0  0  0  0  0
   26.7476  -15.6014    0.0000 C    0  0  0  0  0  0  0  0  0  0  0  0
   27.8914  -17.5967    0.0000 C    0  0  0  0  0  0  0  0  0  0  0  0
   27.9005  -16.2667    0.0000 N    0  0  0  0  0  0  0  0  0  0  0  0
   18.4657  -15.1316    0.0000 P    0  0  0  0  0  0  0  0  0  0  0  0
   20.3366  -12.9146    0.0000 C    0  0  0  0  0  0  0  0  0  0  0  0
   19.8845  -11.6642    0.0000 C    0  0  0  0  0  0  0  0  0  0  0  0
   21.6397  -13.1454    0.0000 C    0  0  0  0  0  0  0  0  0  0  0  0
   20.7446  -10.6448    0.0000 C    0  0  0  0  0  0  0  0  0  0  0  0
   22.4912  -12.1341    0.0000 C    0  0  0  0  0  0  0  0  0  0  0  0
   22.0477  -10.8838    0.0000 C    0  0  0  0  0  0  0  0  0  0  0  0
   17.4457  -14.2714    0.0000 C    0  0  0  0  0  0  0  0  0  0  0  0
   16.1954  -14.7236    0.0000 C    0  0  0  0  0  0  0  0  0  0  0  0
   17.6852  -12.9592    0.0000 C    0  0  0  0  0  0  0  0  0  0  0  0
   15.1841  -13.8635    0.0000 C    0  0  0  0  0  0  0  0  0  0  0  0
   16.6653  -12.0991    0.0000 C    0  0  0  0  0  0  0  0  0  0  0  0
   15.4150  -12.5512    0.0000 C    0  0  0  0  0  0  0  0  0  0  0  0
   22.8281  -20.3277    0.0000 S    0  0  0  0  0  0  0  0  0  0  0  0
   24.6899  -22.5534    0.0000 C    0  0  0  0  0  0  0  0  0  0  0  0
   24.0161  -23.6976    0.0000 C    0  0  0  0  0  0  0  0  0  0  0  0
   22.6861  -23.6885    0.0000 C    0  0  0  0  0  0  0  0  0  0  0  0
   24.6813  -24.8505    0.0000 C    0  0  0  0  0  0  0  0  0  0  0  0
   22.0208  -24.8414    0.0000 C    0  0  0  0  0  0  0  0  0  0  0  0
   24.0074  -26.0029    0.0000 C    0  0  0  0  0  0  0  0  0  0  0  0
   22.6769  -25.9943    0.0000 C    0  0  0  0  0  0  0  0  0  0  0  0
   25.7099  -23.4048    0.0000 C    0  0  0  0  0  0  0  0  0  0  0  0
   26.9602  -22.9613    0.0000 C    0  0  0  0  0  0  0  0  0  0  0  0
   25.4704  -24.7175    0.0000 C    0  0  0  0  0  0  0  0  0  0  0  0
   27.9715  -23.8128    0.0000 C    0  0  0  0  0  0  0  0  0  0  0  0
   26.4903  -25.5777    0.0000 C    0  0  0  0  0  0  0  0  0  0  0  0
   27.7406  -25.1250    0.0000 C    0  0  0  0  0  0  0  0  0  0  0  0
  1  2  1  0  0  0  0
  1  3  2  0  0  0  0
  2  4  2  0  0  0  0
  3  5  1  0  0  0  0
  4  6  1  0  0  0  0
  5  6  2  0  0  0  0
  7  8  1  0  0  0  0
  7  9  2  0  0  0  0
  8 10  2  0  0  0  0
  9 11  1  0  0  0  0
 10 12  1  0  0  0  0
 11 12  2  0  0  0  0
 13 14  2  0  0  0  0
 13 15  1  0  0  0  0
 14 16  1  0  0  0  0
 15 17  2  0  0  0  0
 16 18  2  0  0  0  0
 17 18  1  0  0  0  0
 19 20  2  0  0  0  0
 19 21  1  0  0  0  0
 20 22  1  0  0  0  0
 21 23  2  0  0  0  0
 22 24  2  0  0  0  0
 23 24  1  0  0  0  0
 25 26  2  0  0  0  0
 25 27  1  0  0  0  0
 26 28  1  0  0  0  0
 27 29  2  0  0  0  0
 28 30  2  0  0  0  0
 29 30  1  0  0  0  0
 31 32  1  0  0  0  0
 31 33  1  0  0  0  0
 31 34  1  0  0  0  0
 27 34  1  0  0  0  0
 21 34  1  0  0  0  0
 17 34  1  0  0  0  0
 35 36  1  0  0  0  0
 35 37  2  0  0  0  0
 36 38  2  0  0  0  0
 37 39  1  0  0  0  0
 38 40  1  0  0  0  0
 39 40  2  0  0  0  0
 31 35  1  0  0  0  0
 31 41  1  0  0  0  0
 42 43  1  0  0  0  0
 42 44  2  0  0  0  0
 43 45  2  0  0  0  0
 44 46  1  0  0  0  0
 45 47  1  0  0  0  0
 46 47  2  0  0  0  0
 41 42  1  0  0  0  0
 48 49  1  0  0  0  0
 48 50  2  0  0  0  0
 49 51  2  0  0  0  0
 50 52  1  0  0  0  0
 51 53  1  0  0  0  0
 52 53  2  0  0  0  0
 41 48  1  0  0  0  0
 12 41  1  0  0  0  0
 31 54  1  0  0  0  0
 54 55  1  0  0  0  0
 56 57  1  0  0  0  0
 56 58  2  0  0  0  0
 57 59  2  0  0  0  0
 58 60  1  0  0  0  0
 59 61  1  0  0  0  0
 60 61  2  0  0  0  0
 55 56  1  0  0  0  0
 62 63  1  0  0  0  0
 62 64  2  0  0  0  0
 63 65  2  0  0  0  0
 64 66  1  0  0  0  0
 65 67  1  0  0  0  0
 66 67  2  0  0  0  0
 55 62  1  0  0  0  0
  6 55  1  0  0  0  0
M  END
> <NMREDATA_VERSION>
1.1

> <NMREDATA_LEVEL>
0

> <NMREDATA_SOLVENT>
toluene-d8

> <NMREDATA_TEMPERATURE>
248

> <NMREDATA_FORMULA>
C60H53NP2RhS

> <NMREDATA_SMILES>
c1ccc(cc1)C(c1ccccc1)(c1ccccc1)S[RhH2](P(c1ccccc1)(c1ccccc1)c1ccccc1)(P(c1ccccc1)(c1ccccc1)c1ccccc1)c1ccncc1

> <NMREDATA_ASSIGNMENT>
Rh31, 155.00, 31

> <NMREDATA_1D_103Rh>
155.00, L=Rh31

$$$$

  ACD/LABS03292412492D

 58 65  0  0  0  0  0  0  0  0  1 V2000
   22.4307  -13.1013    0.0000 C    0  0  0  0  0  0  0  0  0  0  0  0
   23.6784  -12.6370    0.0000 C    0  0  0  0  0  0  0  0  0  0  0  0
   22.2034  -14.4103    0.0000 C    0  0  0  0  0  0  0  0  0  0  0  0
   24.6953  -13.4935    0.0000 C    0  0  0  0  0  0  0  0  0  0  0  0
   23.2203  -15.2668    0.0000 C    0  0  0  0  0  0  0  0  0  0  0  0
   24.4680  -14.8025    0.0000 C    0  0  0  0  0  0  0  0  0  0  0  0
   14.7560  -19.2835    0.0000 C    0  0  0  0  0  0  0  0  0  0  0  0
   14.3028  -20.5384    0.0000 C    0  0  0  0  0  0  0  0  0  0  0  0
   16.0696  -19.0573    0.0000 C    0  0  0  0  0  0  0  0  0  0  0  0
   15.1467  -21.5567    0.0000 C    0  0  0  0  0  0  0  0  0  0  0  0
   16.9180  -20.0832    0.0000 C    0  0  0  0  0  0  0  0  0  0  0  0
   16.4603  -21.3305    0.0000 C    0  0  0  0  0  0  0  0  0  0  0  0
   19.7034  -21.6085    0.0000 C    0  0  0  0  0  0  0  0  0  0  0  0
   19.9289  -22.9219    0.0000 C    0  0  0  0  0  0  0  0  0  0  0  0
   18.4608  -21.1590    0.0000 C    0  0  0  0  0  0  0  0  0  0  0  0
   18.9156  -23.7733    0.0000 C    0  0  0  0  0  0  0  0  0  0  0  0
   17.4391  -22.0147    0.0000 C    0  0  0  0  0  0  0  0  0  0  0  0
   17.6602  -23.3204    0.0000 C    0  0  0  0  0  0  0  0  0  0  0  0
   19.0271  -17.6877    0.0000 C    0  0  0  0  0  0  0  0  0  0  0  0
   18.7938  -16.3788    0.0000 C    0  0  0  0  0  0  0  0  0  0  0  0
   18.0011  -18.5361    0.0000 C    0  0  0  0  0  0  0  0  0  0  0  0
   17.5465  -15.9211    0.0000 C    0  0  0  0  0  0  0  0  0  0  0  0
   16.7539  -18.0785    0.0000 C    0  0  0  0  0  0  0  0  0  0  0  0
   16.5206  -16.7695    0.0000 C    0  0  0  0  0  0  0  0  0  0  0  0
   22.6271  -19.0813    0.0000 Rh   0  0  0  0  0  0  0  0  0  0  0  0
   21.9643  -20.2213    0.0000 H    0  0  0  0  0  0  0  0  0  0  0  0
   23.9458  -19.0773    0.0000 H    0  0  0  0  0  0  0  0  0  0  0  0
   18.2273  -19.8497    0.0000 P    0  0  0  0  0  0  0  0  0  0  0  0
   21.9619  -17.9290    0.0000 C    0  0  0  0  0  0  0  0  0  0  0  0
   22.6200  -16.7808    0.0000 C    0  0  0  0  0  0  0  0  0  0  0  0
   20.6385  -17.9249    0.0000 C    0  0  0  0  0  0  0  0  0  0  0  0
   21.9549  -15.6290    0.0000 C    0  0  0  0  0  0  0  0  0  0  0  0
   19.9734  -16.7730    0.0000 C    0  0  0  0  0  0  0  0  0  0  0  0
   20.6316  -15.6248    0.0000 N    0  0  0  0  0  0  0  0  0  0  0  0
   25.4925  -15.6551    0.0000 P    0  0  0  0  0  0  0  0  0  0  0  0
   26.5097  -16.5120    0.0000 C    0  0  0  0  0  0  0  0  0  0  0  0
   27.7616  -16.0550    0.0000 C    0  0  0  0  0  0  0  0  0  0  0  0
   26.2777  -17.8129    0.0000 C    0  0  0  0  0  0  0  0  0  0  0  0
   28.7818  -16.8993    0.0000 C    0  0  0  0  0  0  0  0  0  0  0  0
   27.3023  -18.6649    0.0000 C    0  0  0  0  0  0  0  0  0  0  0  0
   28.5463  -18.2130    0.0000 C    0  0  0  0  0  0  0  0  0  0  0  0
   26.3494  -14.6380    0.0000 C    0  0  0  0  0  0  0  0  0  0  0  0
   25.8851  -13.3903    0.0000 C    0  0  0  0  0  0  0  0  0  0  0  0
   27.6584  -14.8652    0.0000 C    0  0  0  0  0  0  0  0  0  0  0  0
   26.7378  -12.3658    0.0000 C    0  0  0  0  0  0  0  0  0  0  0  0
   28.5111  -13.8408    0.0000 C    0  0  0  0  0  0  0  0  0  0  0  0
   28.0512  -12.6008    0.0000 C    0  0  0  0  0  0  0  0  0  0  0  0
   23.2946  -22.5254    0.0000 S    0  0  0  0  0  0  0  0  0  0  0  0
   24.6180  -22.5296    0.0000 S    0  0  0  0  0  0  0  0  0  0  0  0
   22.6293  -21.3731    0.0000 S    0  0  0  0  0  0  0  0  0  0  0  0
   25.2761  -21.3814    0.0000 S    0  0  0  0  0  0  0  0  0  0  0  0
   23.2874  -20.2250    0.0000 S    0  0  0  0  0  0  0  0  0  0  0  0
   24.6108  -20.2291    0.0000 S    0  0  0  0  0  0  0  0  0  0  0  0
   25.2767  -19.0765    0.0000 F    0  0  0  0  0  0  0  0  0  0  0  0
   26.6072  -21.3811    0.0000 F    0  0  0  0  0  0  0  0  0  0  0  0
   25.2830  -23.6814    0.0000 F    0  0  0  0  0  0  0  0  0  0  0  0
   22.6288  -23.6780    0.0000 F    0  0  0  0  0  0  0  0  0  0  0  0
   21.2982  -21.3735    0.0000 F    0  0  0  0  0  0  0  0  0  0  0  0
  1  2  1  0  0  0  0
  1  3  2  0  0  0  0
  2  4  2  0  0  0  0
  3  5  1  0  0  0  0
  4  6  1  0  0  0  0
  5  6  2  0  0  0  0
  7  8  2  0  0  0  0
  7  9  1  0  0  0  0
  8 10  1  0  0  0  0
  9 11  2  0  0  0  0
 10 12  2  0  0  0  0
 11 12  1  0  0  0  0
 13 14  2  0  0  0  0
 13 15  1  0  0  0  0
 14 16  1  0  0  0  0
 15 17  2  0  0  0  0
 16 18  2  0  0  0  0
 17 18  1  0  0  0  0
 19 20  2  0  0  0  0
 19 21  1  0  0  0  0
 20 22  1  0  0  0  0
 21 23  2  0  0  0  0
 22 24  2  0  0  0  0
 23 24  1  0  0  0  0
 25 26  1  0  0  0  0
 25 27  1  0  0  0  0
 25 28  1  0  0  0  0
 21 28  1  0  0  0  0
 15 28  1  0  0  0  0
 11 28  1  0  0  0  0
 29 30  1  0  0  0  0
 29 31  2  0  0  0  0
 30 32  2  0  0  0  0
 31 33  1  0  0  0  0
 32 34  1  0  0  0  0
 33 34  2  0  0  0  0
 25 29  1  0  0  0  0
 25 35  1  0  0  0  0
 36 37  1  0  0  0  0
 36 38  2  0  0  0  0
 37 39  2  0  0  0  0
 38 40  1  0  0  0  0
 39 41  1  0  0  0  0
 40 41  2  0  0  0  0
 35 36  1  0  0  0  0
 42 43  1  0  0  0  0
 42 44  2  0  0  0  0
 43 45  2  0  0  0  0
 44 46  1  0  0  0  0
 45 47  1  0  0  0  0
 46 47  2  0  0  0  0
 35 42  1  0  0  0  0
  6 35  1  0  0  0  0
 48 49  1  0  0  0  0
 48 50  2  0  0  0  0
 49 51  2  0  0  0  0
 50 52  1  0  0  0  0
 51 53  1  0  0  0  0
 52 53  2  0  0  0  0
 53 54  1  0  0  0  0
 51 55  1  0  0  0  0
 49 56  1  0  0  0  0
 48 57  1  0  0  0  0
 50 58  1  0  0  0  0
 25 52  1  0  0  0  0
M  END
> <NMREDATA_VERSION>
1.1

> <NMREDATA_LEVEL>
0

> <NMREDATA_SOLVENT>
toluene-d8

> <NMREDATA_TEMPERATURE>
248

> <NMREDATA_FORMULA>
C41H38F5NP2RhS6

> <NMREDATA_SMILES>
FS1=S(F)S(=S(S(=S1[RhH2](P(c1ccccc1)(c1ccccc1)c1ccccc1)(P(c1ccccc1)(c1ccccc1)c1ccccc1)c1ccncc1)F)F)F

> <NMREDATA_ASSIGNMENT>
Rh25, 273.00, 25

> <NMREDATA_1D_103Rh>
273.00, L=Rh25

$$$$

  ACD/LABS03292412502D

 64 72  0  0  0  0  0  0  0  0  1 V2000
   19.1431  -14.9945    0.0000 C    0  0  0  0  0  0  0  0  0  0  0  0
   17.8928  -14.5422    0.0000 C    0  0  0  0  0  0  0  0  0  0  0  0
   20.1632  -14.1342    0.0000 C    0  0  0  0  0  0  0  0  0  0  0  0
   17.6626  -13.2296    0.0000 C    0  0  0  0  0  0  0  0  0  0  0  0
   19.9236  -12.8216    0.0000 C    0  0  0  0  0  0  0  0  0  0  0  0
   18.6734  -12.3693    0.0000 C    0  0  0  0  0  0  0  0  0  0  0  0
   23.3901  -11.4383    0.0000 C    0  0  0  0  0  0  0  0  0  0  0  0
   22.5388  -12.4580    0.0000 C    0  0  0  0  0  0  0  0  0  0  0  0
   24.7027  -11.6690    0.0000 C    0  0  0  0  0  0  0  0  0  0  0  0
   23.0001  -13.7083    0.0000 C    0  0  0  0  0  0  0  0  0  0  0  0
   25.1639  -12.9103    0.0000 C    0  0  0  0  0  0  0  0  0  0  0  0
   24.3127  -13.9389    0.0000 C    0  0  0  0  0  0  0  0  0  0  0  0
   24.6051  -20.3583    0.0000 C    0  0  0  0  0  0  0  0  0  0  0  0
   24.3834  -21.6709    0.0000 C    0  0  0  0  0  0  0  0  0  0  0  0
   23.5854  -19.5075    0.0000 C    0  0  0  0  0  0  0  0  0  0  0  0
   23.1331  -22.1232    0.0000 C    0  0  0  0  0  0  0  0  0  0  0  0
   22.3351  -19.9593    0.0000 C    0  0  0  0  0  0  0  0  0  0  0  0
   22.1134  -21.2719    0.0000 C    0  0  0  0  0  0  0  0  0  0  0  0
   20.9344  -21.3785    0.0000 C    0  0  0  0  0  0  0  0  0  0  0  0
   20.0831  -22.3981    0.0000 C    0  0  0  0  0  0  0  0  0  0  0  0
   20.4736  -20.1282    0.0000 C    0  0  0  0  0  0  0  0  0  0  0  0
   18.7710  -22.1675    0.0000 C    0  0  0  0  0  0  0  0  0  0  0  0
   19.1610  -19.8975    0.0000 C    0  0  0  0  0  0  0  0  0  0  0  0
   18.3097  -20.9262    0.0000 C    0  0  0  0  0  0  0  0  0  0  0  0
   21.3154  -16.8121    0.0000 C    0  0  0  0  0  0  0  0  0  0  0  0
   21.9804  -15.6595    0.0000 C    0  0  0  0  0  0  0  0  0  0  0  0
   21.9804  -17.9554    0.0000 C    0  0  0  0  0  0  0  0  0  0  0  0
   23.3104  -15.6595    0.0000 C    0  0  0  0  0  0  0  0  0  0  0  0
   23.3104  -17.9554    0.0000 C    0  0  0  0  0  0  0  0  0  0  0  0
   23.9754  -16.8121    0.0000 C    0  0  0  0  0  0  0  0  0  0  0  0
   19.1077  -17.2460    0.0000 Rh   0  0  0  0  0  0  0  0  0  0  0  0
   17.8574  -17.7073    0.0000 H    0  0  0  0  0  0  0  0  0  0  0  0
   19.3294  -15.9519    0.0000 H    0  0  0  0  0  0  0  0  0  0  0  0
   21.3154  -19.1080    0.0000 P    0  0  0  0  0  0  0  0  0  0  0  0
   24.7649  -15.1803    0.0000 P    0  0  0  0  0  0  0  0  0  0  0  0
   25.4299  -16.3334    0.0000 C    0  0  0  0  0  0  0  0  0  0  0  0
   26.7599  -16.3334    0.0000 C    0  0  0  0  0  0  0  0  0  0  0  0
   24.7649  -17.4766    0.0000 C    0  0  0  0  0  0  0  0  0  0  0  0
   27.4249  -17.4766    0.0000 C    0  0  0  0  0  0  0  0  0  0  0  0
   25.4299  -18.6293    0.0000 C    0  0  0  0  0  0  0  0  0  0  0  0
   26.7599  -18.6293    0.0000 C    0  0  0  0  0  0  0  0  0  0  0  0
   26.0152  -14.7285    0.0000 C    0  0  0  0  0  0  0  0  0  0  0  0
   27.0349  -15.5793    0.0000 C    0  0  0  0  0  0  0  0  0  0  0  0
   26.2454  -13.4159    0.0000 C    0  0  0  0  0  0  0  0  0  0  0  0
   28.2852  -15.1275    0.0000 C    0  0  0  0  0  0  0  0  0  0  0  0
   27.4957  -12.9636    0.0000 C    0  0  0  0  0  0  0  0  0  0  0  0
   28.5158  -13.8149    0.0000 C    0  0  0  0  0  0  0  0  0  0  0  0
   16.8821  -15.4019    0.0000 P    0  0  0  0  0  0  0  0  0  0  0  0
   15.6139  -12.1123    0.0000 C    0  0  0  0  0  0  0  0  0  0  0  0
   16.4741  -13.1320    0.0000 C    0  0  0  0  0  0  0  0  0  0  0  0
   14.3018  -12.3519    0.0000 C    0  0  0  0  0  0  0  0  0  0  0  0
   16.0218  -14.3823    0.0000 C    0  0  0  0  0  0  0  0  0  0  0  0
   13.8495  -13.6022    0.0000 C    0  0  0  0  0  0  0  0  0  0  0  0
   14.7098  -14.6219    0.0000 C    0  0  0  0  0  0  0  0  0  0  0  0
   14.5853  -18.0619    0.0000 C    0  0  0  0  0  0  0  0  0  0  0  0
   15.7384  -17.3880    0.0000 C    0  0  0  0  0  0  0  0  0  0  0  0
   13.4326  -17.4059    0.0000 C    0  0  0  0  0  0  0  0  0  0  0  0
   15.7294  -16.0674    0.0000 C    0  0  0  0  0  0  0  0  0  0  0  0
   13.4236  -16.0849    0.0000 C    0  0  0  0  0  0  0  0  0  0  0  0
   14.5768  -15.4109    0.0000 C    0  0  0  0  0  0  0  0  0  0  0  0
   18.8771  -18.5586    0.0000 O    0  0  0  0  0  0  0  0  0  0  0  0
   17.6268  -19.0194    0.0000 C    0  0  0  0  0  0  0  0  0  0  0  0
   16.6071  -18.1681    0.0000 O    0  0  0  0  0  0  0  0  0  0  0  0
   17.3966  -20.3319    0.0000 C    0  0  0  0  0  0  0  0  0  0  0  0
  1  2  1  0  0  0  0
  1  3  2  0  0  0  0
  2  4  2  0  0  0  0
  3  5  1  0  0  0  0
  4  6  1  0  0  0  0
  5  6  2  0  0  0  0
  7  8  1  0  0  0  0
  7  9  2  0  0  0  0
  8 10  2  0  0  0  0
  9 11  1  0  0  0  0
 10 12  1  0  0  0  0
 11 12  2  0  0  0  0
 13 14  2  0  0  0  0
 13 15  1  0  0  0  0
 14 16  1  0  0  0  0
 15 17  2  0  0  0  0
 16 18  2  0  0  0  0
 17 18  1  0  0  0  0
 19 20  2  0  0  0  0
 19 21  1  0  0  0  0
 20 22  1  0  0  0  0
 21 23  2  0  0  0  0
 22 24  2  0  0  0  0
 23 24  1  0  0  0  0
 25 26  2  0  0  0  0
 25 27  1  0  0  0  0
 26 28  1  0  0  0  0
 27 29  2  0  0  0  0
 28 30  2  0  0  0  0
 29 30  1  0  0  0  0
 31 32  1  0  0  0  0
 31 33  1  0  0  0  0
 31 34  1  0  0  0  0
 27 34  1  0  0  0  0
 21 34  1  0  0  0  0
 17 34  1  0  0  0  0
 31 35  1  0  0  0  0
 36 37  1  0  0  0  0
 36 38  2  0  0  0  0
 37 39  2  0  0  0  0
 38 40  1  0  0  0  0
 39 41  1  0  0  0  0
 40 41  2  0  0  0  0
 35 36  1  0  0  0  0
 42 43  1  0  0  0  0
 42 44  2  0  0  0  0
 43 45  2  0  0  0  0
 44 46  1  0  0  0  0
 45 47  1  0  0  0  0
 46 47  2  0  0  0  0
 35 42  1  0  0  0  0
 12 35  1  0  0  0  0
 31 48  1  0  0  0  0
  2 48  1  0  0  0  0
 49 50  1  0  0  0  0
 49 51  2  0  0  0  0
 50 52  2  0  0  0  0
 51 53  1  0  0  0  0
 52 54  1  0  0  0  0
 53 54  2  0  0  0  0
 48 52  1  0  0  0  0
 55 56  1  0  0  0  0
 55 57  2  0  0  0  0
 56 58  2  0  0  0  0
 57 59  1  0  0  0  0
 58 60  1  0  0  0  0
 59 60  2  0  0  0  0
 48 58  1  0  0  0  0
 31 61  1  0  0  0  0
 61 62  1  0  0  0  0
 62 63  2  0  0  0  0
 62 64  1  0  0  0  0
M  END
> <NMREDATA_VERSION>
1.1

> <NMREDATA_LEVEL>
0

> <NMREDATA_SOLVENT>
toluene-d8

> <NMREDATA_TEMPERATURE>
248

> <NMREDATA_FORMULA>
C56H53O2P3Rh

> <NMREDATA_SMILES>
CC(=O)O[RhH2](P(c1ccccc1)(c1ccccc1)c1ccccc1)(P(c1ccccc1)(c1ccccc1)c1ccccc1)P(c1ccccc1)(c1ccccc1)c1ccccc1

> <NMREDATA_ASSIGNMENT>
Rh31, 207.00, 31

> <NMREDATA_1D_103Rh>
207.00, L=Rh31

$$$$

  ACD/LABS03292412512D

 69 78  0  0  0  0  0  0  0  0  1 V2000
   19.1431  -14.9945    0.0000 C    0  0  0  0  0  0  0  0  0  0  0  0
   17.8928  -14.5422    0.0000 C    0  0  0  0  0  0  0  0  0  0  0  0
   20.1632  -14.1342    0.0000 C    0  0  0  0  0  0  0  0  0  0  0  0
   17.6626  -13.2296    0.0000 C    0  0  0  0  0  0  0  0  0  0  0  0
   19.9236  -12.8216    0.0000 C    0  0  0  0  0  0  0  0  0  0  0  0
   18.6734  -12.3693    0.0000 C    0  0  0  0  0  0  0  0  0  0  0  0
   23.3901  -11.4383    0.0000 C    0  0  0  0  0  0  0  0  0  0  0  0
   22.5388  -12.4580    0.0000 C    0  0  0  0  0  0  0  0  0  0  0  0
   24.7027  -11.6690    0.0000 C    0  0  0  0  0  0  0  0  0  0  0  0
   23.0001  -13.7083    0.0000 C    0  0  0  0  0  0  0  0  0  0  0  0
   25.1639  -12.9103    0.0000 C    0  0  0  0  0  0  0  0  0  0  0  0
   24.3127  -13.9389    0.0000 C    0  0  0  0  0  0  0  0  0  0  0  0
   24.6051  -20.3583    0.0000 C    0  0  0  0  0  0  0  0  0  0  0  0
   24.3834  -21.6709    0.0000 C    0  0  0  0  0  0  0  0  0  0  0  0
   23.5854  -19.5075    0.0000 C    0  0  0  0  0  0  0  0  0  0  0  0
   23.1331  -22.1232    0.0000 C    0  0  0  0  0  0  0  0  0  0  0  0
   22.3351  -19.9593    0.0000 C    0  0  0  0  0  0  0  0  0  0  0  0
   22.1134  -21.2719    0.0000 C    0  0  0  0  0  0  0  0  0  0  0  0
   20.9344  -21.3785    0.0000 C    0  0  0  0  0  0  0  0  0  0  0  0
   20.0831  -22.3981    0.0000 C    0  0  0  0  0  0  0  0  0  0  0  0
   20.4736  -20.1282    0.0000 C    0  0  0  0  0  0  0  0  0  0  0  0
   18.7710  -22.1675    0.0000 C    0  0  0  0  0  0  0  0  0  0  0  0
   19.1610  -19.8975    0.0000 C    0  0  0  0  0  0  0  0  0  0  0  0
   18.3097  -20.9262    0.0000 C    0  0  0  0  0  0  0  0  0  0  0  0
   21.3154  -16.8121    0.0000 C    0  0  0  0  0  0  0  0  0  0  0  0
   21.9804  -15.6595    0.0000 C    0  0  0  0  0  0  0  0  0  0  0  0
   21.9804  -17.9554    0.0000 C    0  0  0  0  0  0  0  0  0  0  0  0
   23.3104  -15.6595    0.0000 C    0  0  0  0  0  0  0  0  0  0  0  0
   23.3104  -17.9554    0.0000 C    0  0  0  0  0  0  0  0  0  0  0  0
   23.9754  -16.8121    0.0000 C    0  0  0  0  0  0  0  0  0  0  0  0
   19.1077  -17.2460    0.0000 Rh   0  0  0  0  0  0  0  0  0  0  0  0
   17.8574  -17.7073    0.0000 H    0  0  0  0  0  0  0  0  0  0  0  0
   19.3294  -15.9519    0.0000 H    0  0  0  0  0  0  0  0  0  0  0  0
   21.3154  -19.1080    0.0000 P    0  0  0  0  0  0  0  0  0  0  0  0
   24.7649  -15.1803    0.0000 P    0  0  0  0  0  0  0  0  0  0  0  0
   25.4299  -16.3334    0.0000 C    0  0  0  0  0  0  0  0  0  0  0  0
   26.7599  -16.3334    0.0000 C    0  0  0  0  0  0  0  0  0  0  0  0
   24.7649  -17.4766    0.0000 C    0  0  0  0  0  0  0  0  0  0  0  0
   27.4249  -17.4766    0.0000 C    0  0  0  0  0  0  0  0  0  0  0  0
   25.4299  -18.6293    0.0000 C    0  0  0  0  0  0  0  0  0  0  0  0
   26.7599  -18.6293    0.0000 C    0  0  0  0  0  0  0  0  0  0  0  0
   26.0152  -14.7285    0.0000 C    0  0  0  0  0  0  0  0  0  0  0  0
   27.0349  -15.5793    0.0000 C    0  0  0  0  0  0  0  0  0  0  0  0
   26.2454  -13.4159    0.0000 C    0  0  0  0  0  0  0  0  0  0  0  0
   28.2852  -15.1275    0.0000 C    0  0  0  0  0  0  0  0  0  0  0  0
   27.4957  -12.9636    0.0000 C    0  0  0  0  0  0  0  0  0  0  0  0
   28.5158  -13.8149    0.0000 C    0  0  0  0  0  0  0  0  0  0  0  0
   16.8821  -15.4019    0.0000 P    0  0  0  0  0  0  0  0  0  0  0  0
   15.6139  -12.1123    0.0000 C    0  0  0  0  0  0  0  0  0  0  0  0
   16.4741  -13.1320    0.0000 C    0  0  0  0  0  0  0  0  0  0  0  0
   14.3018  -12.3519    0.0000 C    0  0  0  0  0  0  0  0  0  0  0  0
   16.0218  -14.3823    0.0000 C    0  0  0  0  0  0  0  0  0  0  0  0
   13.8495  -13.6022    0.0000 C    0  0  0  0  0  0  0  0  0  0  0  0
   14.7098  -14.6219    0.0000 C    0  0  0  0  0  0  0  0  0  0  0  0
   14.5853  -18.0619    0.0000 C    0  0  0  0  0  0  0  0  0  0  0  0
   15.7384  -17.3880    0.0000 C    0  0  0  0  0  0  0  0  0  0  0  0
   13.4326  -17.4059    0.0000 C    0  0  0  0  0  0  0  0  0  0  0  0
   15.7294  -16.0674    0.0000 C    0  0  0  0  0  0  0  0  0  0  0  0
   13.4236  -16.0849    0.0000 C    0  0  0  0  0  0  0  0  0  0  0  0
   14.5768  -15.4109    0.0000 C    0  0  0  0  0  0  0  0  0  0  0  0
   18.8771  -18.5586    0.0000 O    0  0  0  0  0  0  0  0  0  0  0  0
   17.6268  -19.0194    0.0000 C    0  0  0  0  0  0  0  0  0  0  0  0
   16.6071  -18.1681    0.0000 O    0  0  0  0  0  0  0  0  0  0  0  0
   17.4001  -20.3299    0.0000 C    0  0  0  0  0  0  0  0  0  0  0  0
   18.4217  -21.1815    0.0000 C    0  0  0  0  0  0  0  0  0  0  0  0
   16.1518  -20.7889    0.0000 C    0  0  0  0  0  0  0  0  0  0  0  0
   18.1950  -22.4921    0.0000 C    0  0  0  0  0  0  0  0  0  0  0  0
   15.9251  -22.0994    0.0000 C    0  0  0  0  0  0  0  0  0  0  0  0
   16.9467  -22.9510    0.0000 C    0  0  0  0  0  0  0  0  0  0  0  0
  1  2  1  0  0  0  0
  1  3  2  0  0  0  0
  2  4  2  0  0  0  0
  3  5  1  0  0  0  0
  4  6  1  0  0  0  0
  5  6  2  0  0  0  0
  7  8  1  0  0  0  0
  7  9  2  0  0  0  0
  8 10  2  0  0  0  0
  9 11  1  0  0  0  0
 10 12  1  0  0  0  0
 11 12  2  0  0  0  0
 13 14  2  0  0  0  0
 13 15  1  0  0  0  0
 14 16  1  0  0  0  0
 15 17  2  0  0  0  0
 16 18  2  0  0  0  0
 17 18  1  0  0  0  0
 19 20  2  0  0  0  0
 19 21  1  0  0  0  0
 20 22  1  0  0  0  0
 21 23  2  0  0  0  0
 22 24  2  0  0  0  0
 23 24  1  0  0  0  0
 25 26  2  0  0  0  0
 25 27  1  0  0  0  0
 26 28  1  0  0  0  0
 27 29  2  0  0  0  0
 28 30  2  0  0  0  0
 29 30  1  0  0  0  0
 31 32  1  0  0  0  0
 31 33  1  0  0  0  0
 31 34  1  0  0  0  0
 27 34  1  0  0  0  0
 21 34  1  0  0  0  0
 17 34  1  0  0  0  0
 31 35  1  0  0  0  0
 36 37  1  0  0  0  0
 36 38  2  0  0  0  0
 37 39  2  0  0  0  0
 38 40  1  0  0  0  0
 39 41  1  0  0  0  0
 40 41  2  0  0  0  0
 35 36  1  0  0  0  0
 42 43  1  0  0  0  0
 42 44  2  0  0  0  0
 43 45  2  0  0  0  0
 44 46  1  0  0  0  0
 45 47  1  0  0  0  0
 46 47  2  0  0  0  0
 35 42  1  0  0  0  0
 12 35  1  0  0  0  0
 31 48  1  0  0  0  0
  2 48  1  0  0  0  0
 49 50  1  0  0  0  0
 49 51  2  0  0  0  0
 50 52  2  0  0  0  0
 51 53  1  0  0  0  0
 52 54  1  0  0  0  0
 53 54  2  0  0  0  0
 48 52  1  0  0  0  0
 55 56  1  0  0  0  0
 55 57  2  0  0  0  0
 56 58  2  0  0  0  0
 57 59  1  0  0  0  0
 58 60  1  0  0  0  0
 59 60  2  0  0  0  0
 48 58  1  0  0  0  0
 31 61  1  0  0  0  0
 61 62  1  0  0  0  0
 62 63  2  0  0  0  0
 64 65  1  0  0  0  0
 64 66  2  0  0  0  0
 65 67  2  0  0  0  0
 66 68  1  0  0  0  0
 67 69  1  0  0  0  0
 68 69  2  0  0  0  0
 62 64  1  0  0  0  0
M  END
> <NMREDATA_VERSION>
1.1

> <NMREDATA_LEVEL>
0

> <NMREDATA_SOLVENT>
toluene-d8

> <NMREDATA_TEMPERATURE>
248

> <NMREDATA_FORMULA>
C61H55O2P3Rh

> <NMREDATA_SMILES>
O=C(c1ccccc1)O[RhH2](P(c1ccccc1)(c1ccccc1)c1ccccc1)(P(c1ccccc1)(c1ccccc1)c1ccccc1)P(c1ccccc1)(c1ccccc1)c1ccccc1

> <NMREDATA_ASSIGNMENT>
Rh31, 183.00, 31

> <NMREDATA_1D_103Rh>
183.00, L=Rh31

$$$$

  ACD/LABS03292412512D

 64 72  0  0  0  0  0  0  0  0  2 V2000
   19.1431  -14.9945    0.0000 C    0  0  0  0  0  0  0  0  0  0  0  0
   17.8928  -14.5422    0.0000 C    0  0  0  0  0  0  0  0  0  0  0  0
   20.1632  -14.1342    0.0000 C    0  0  0  0  0  0  0  0  0  0  0  0
   17.6626  -13.2296    0.0000 C    0  0  0  0  0  0  0  0  0  0  0  0
   19.9236  -12.8216    0.0000 C    0  0  0  0  0  0  0  0  0  0  0  0
   18.6734  -12.3693    0.0000 C    0  0  0  0  0  0  0  0  0  0  0  0
   23.3901  -11.4383    0.0000 C    0  0  0  0  0  0  0  0  0  0  0  0
   22.5388  -12.4580    0.0000 C    0  0  0  0  0  0  0  0  0  0  0  0
   24.7027  -11.6690    0.0000 C    0  0  0  0  0  0  0  0  0  0  0  0
   23.0001  -13.7083    0.0000 C    0  0  0  0  0  0  0  0  0  0  0  0
   25.1639  -12.9103    0.0000 C    0  0  0  0  0  0  0  0  0  0  0  0
   24.3127  -13.9389    0.0000 C    0  0  0  0  0  0  0  0  0  0  0  0
   24.6051  -20.3583    0.0000 C    0  0  0  0  0  0  0  0  0  0  0  0
   24.3834  -21.6709    0.0000 C    0  0  0  0  0  0  0  0  0  0  0  0
   23.5854  -19.5075    0.0000 C    0  0  0  0  0  0  0  0  0  0  0  0
   23.1331  -22.1232    0.0000 C    0  0  0  0  0  0  0  0  0  0  0  0
   22.3351  -19.9593    0.0000 C    0  0  0  0  0  0  0  0  0  0  0  0
   22.1134  -21.2719    0.0000 C    0  0  0  0  0  0  0  0  0  0  0  0
   20.9344  -21.3785    0.0000 C    0  0  0  0  0  0  0  0  0  0  0  0
   20.0831  -22.3981    0.0000 C    0  0  0  0  0  0  0  0  0  0  0  0
   20.4736  -20.1282    0.0000 C    0  0  0  0  0  0  0  0  0  0  0  0
   18.7710  -22.1675    0.0000 C    0  0  0  0  0  0  0  0  0  0  0  0
   19.1610  -19.8975    0.0000 C    0  0  0  0  0  0  0  0  0  0  0  0
   18.3097  -20.9262    0.0000 C    0  0  0  0  0  0  0  0  0  0  0  0
   21.3154  -16.8121    0.0000 C    0  0  0  0  0  0  0  0  0  0  0  0
   21.9804  -15.6595    0.0000 C    0  0  0  0  0  0  0  0  0  0  0  0
   21.9804  -17.9554    0.0000 C    0  0  0  0  0  0  0  0  0  0  0  0
   23.3104  -15.6595    0.0000 C    0  0  0  0  0  0  0  0  0  0  0  0
   23.3104  -17.9554    0.0000 C    0  0  0  0  0  0  0  0  0  0  0  0
   23.9754  -16.8121    0.0000 C    0  0  0  0  0  0  0  0  0  0  0  0
   19.1077  -17.2460    0.0000 Rh   0  0  0  0  0  0  0  0  0  0  0  0
   17.8574  -17.7073    0.0000 H    0  0  0  0  0  0  0  0  0  0  0  0
   19.3294  -15.9519    0.0000 H    0  0  0  0  0  0  0  0  0  0  0  0
   21.3154  -19.1080    0.0000 P    0  0  0  0  0  0  0  0  0  0  0  0
   24.7649  -15.1803    0.0000 P    0  0  0  0  0  0  0  0  0  0  0  0
   25.4299  -16.3334    0.0000 C    0  0  0  0  0  0  0  0  0  0  0  0
   26.7599  -16.3334    0.0000 C    0  0  0  0  0  0  0  0  0  0  0  0
   24.7649  -17.4766    0.0000 C    0  0  0  0  0  0  0  0  0  0  0  0
   27.4249  -17.4766    0.0000 C    0  0  0  0  0  0  0  0  0  0  0  0
   25.4299  -18.6293    0.0000 C    0  0  0  0  0  0  0  0  0  0  0  0
   26.7599  -18.6293    0.0000 C    0  0  0  0  0  0  0  0  0  0  0  0
   26.0152  -14.7285    0.0000 C    0  0  0  0  0  0  0  0  0  0  0  0
   27.0349  -15.5793    0.0000 C    0  0  0  0  0  0  0  0  0  0  0  0
   26.2454  -13.4159    0.0000 C    0  0  0  0  0  0  0  0  0  0  0  0
   28.2852  -15.1275    0.0000 C    0  0  0  0  0  0  0  0  0  0  0  0
   27.4957  -12.9636    0.0000 C    0  0  0  0  0  0  0  0  0  0  0  0
   28.5158  -13.8149    0.0000 C    0  0  0  0  0  0  0  0  0  0  0  0
   16.8821  -15.4019    0.0000 P    0  0  0  0  0  0  0  0  0  0  0  0
   15.6139  -12.1123    0.0000 C    0  0  0  0  0  0  0  0  0  0  0  0
   16.4741  -13.1320    0.0000 C    0  0  0  0  0  0  0  0  0  0  0  0
   14.3018  -12.3519    0.0000 C    0  0  0  0  0  0  0  0  0  0  0  0
   16.0218  -14.3823    0.0000 C    0  0  0  0  0  0  0  0  0  0  0  0
   13.8495  -13.6022    0.0000 C    0  0  0  0  0  0  0  0  0  0  0  0
   14.7098  -14.6219    0.0000 C    0  0  0  0  0  0  0  0  0  0  0  0
   14.5853  -18.0619    0.0000 C    0  0  0  0  0  0  0  0  0  0  0  0
   15.7384  -17.3880    0.0000 C    0  0  0  0  0  0  0  0  0  0  0  0
   13.4326  -17.4059    0.0000 C    0  0  0  0  0  0  0  0  0  0  0  0
   15.7294  -16.0674    0.0000 C    0  0  0  0  0  0  0  0  0  0  0  0
   13.4236  -16.0849    0.0000 C    0  0  0  0  0  0  0  0  0  0  0  0
   14.5768  -15.4109    0.0000 C    0  0  0  0  0  0  0  0  0  0  0  0
   18.8771  -18.5586    0.0000 O    0  0  0  0  0  0  0  0  0  0  0  0
   17.6276  -19.0142    0.0000 N    0  3  0  0  0  0  0  0  0  0  0  0
   16.6082  -18.1599    0.0000 O    0  5  0  0  0  0  0  0  0  0  0  0
   17.3974  -20.3241    0.0000 O    0  0  0  0  0  0  0  0  0  0  0  0
  1  2  1  0  0  0  0
  1  3  2  0  0  0  0
  2  4  2  0  0  0  0
  3  5  1  0  0  0  0
  4  6  1  0  0  0  0
  5  6  2  0  0  0  0
  7  8  1  0  0  0  0
  7  9  2  0  0  0  0
  8 10  2  0  0  0  0
  9 11  1  0  0  0  0
 10 12  1  0  0  0  0
 11 12  2  0  0  0  0
 13 14  2  0  0  0  0
 13 15  1  0  0  0  0
 14 16  1  0  0  0  0
 15 17  2  0  0  0  0
 16 18  2  0  0  0  0
 17 18  1  0  0  0  0
 19 20  2  0  0  0  0
 19 21  1  0  0  0  0
 20 22  1  0  0  0  0
 21 23  2  0  0  0  0
 22 24  2  0  0  0  0
 23 24  1  0  0  0  0
 25 26  2  0  0  0  0
 25 27  1  0  0  0  0
 26 28  1  0  0  0  0
 27 29  2  0  0  0  0
 28 30  2  0  0  0  0
 29 30  1  0  0  0  0
 31 32  1  0  0  0  0
 31 33  1  0  0  0  0
 31 34  1  0  0  0  0
 27 34  1  0  0  0  0
 21 34  1  0  0  0  0
 17 34  1  0  0  0  0
 31 35  1  0  0  0  0
 36 37  1  0  0  0  0
 36 38  2  0  0  0  0
 37 39  2  0  0  0  0
 38 40  1  0  0  0  0
 39 41  1  0  0  0  0
 40 41  2  0  0  0  0
 35 36  1  0  0  0  0
 42 43  1  0  0  0  0
 42 44  2  0  0  0  0
 43 45  2  0  0  0  0
 44 46  1  0  0  0  0
 45 47  1  0  0  0  0
 46 47  2  0  0  0  0
 35 42  1  0  0  0  0
 12 35  1  0  0  0  0
 31 48  1  0  0  0  0
  2 48  1  0  0  0  0
 49 50  1  0  0  0  0
 49 51  2  0  0  0  0
 50 52  2  0  0  0  0
 51 53  1  0  0  0  0
 52 54  1  0  0  0  0
 53 54  2  0  0  0  0
 48 52  1  0  0  0  0
 55 56  1  0  0  0  0
 55 57  2  0  0  0  0
 56 58  2  0  0  0  0
 57 59  1  0  0  0  0
 58 60  1  0  0  0  0
 59 60  2  0  0  0  0
 48 58  1  0  0  0  0
 31 61  1  0  0  0  0
 62 63  1  0  0  0  0
 62 64  2  0  0  0  0
 61 62  1  0  0  0  0
M  END
> <NMREDATA_VERSION>
1.1

> <NMREDATA_LEVEL>
0

> <NMREDATA_SOLVENT>
CD2Cl2

> <NMREDATA_TEMPERATURE>
213

> <NMREDATA_FORMULA>
C54H52NO3P3Rh

> <NMREDATA_SMILES>
ON(=O)O[RhH2](P(c1ccccc1)(c1ccccc1)c1ccccc1)(P(c1ccccc1)(c1ccccc1)c1ccccc1)P(c1ccccc1)(c1ccccc1)c1ccccc1

> <NMREDATA_ASSIGNMENT>
Rh31, 270.00, 31

> <NMREDATA_1D_103Rh>
270.00, L=Rh31

$$$$

  ACD/LABS03292412522D

 45 50  0  0  0  0  0  0  0  0  2 V2000
   19.1431  -14.9945    0.0000 C    0  0  0  0  0  0  0  0  0  0  0  0
   17.8928  -14.5422    0.0000 C    0  0  0  0  0  0  0  0  0  0  0  0
   20.1632  -14.1342    0.0000 C    0  0  0  0  0  0  0  0  0  0  0  0
   17.6626  -13.2296    0.0000 C    0  0  0  0  0  0  0  0  0  0  0  0
   19.9236  -12.8216    0.0000 C    0  0  0  0  0  0  0  0  0  0  0  0
   18.6734  -12.3693    0.0000 C    0  0  0  0  0  0  0  0  0  0  0  0
   24.6051  -20.3583    0.0000 C    0  0  0  0  0  0  0  0  0  0  0  0
   24.3834  -21.6709    0.0000 C    0  0  0  0  0  0  0  0  0  0  0  0
   23.5854  -19.5075    0.0000 C    0  0  0  0  0  0  0  0  0  0  0  0
   23.1331  -22.1232    0.0000 C    0  0  0  0  0  0  0  0  0  0  0  0
   22.3351  -19.9593    0.0000 C    0  0  0  0  0  0  0  0  0  0  0  0
   22.1134  -21.2719    0.0000 C    0  0  0  0  0  0  0  0  0  0  0  0
   20.9344  -21.3785    0.0000 C    0  0  0  0  0  0  0  0  0  0  0  0
   20.0831  -22.3981    0.0000 C    0  0  0  0  0  0  0  0  0  0  0  0
   20.4736  -20.1282    0.0000 C    0  0  0  0  0  0  0  0  0  0  0  0
   18.7710  -22.1675    0.0000 C    0  0  0  0  0  0  0  0  0  0  0  0
   19.1610  -19.8975    0.0000 C    0  0  0  0  0  0  0  0  0  0  0  0
   18.3097  -20.9262    0.0000 C    0  0  0  0  0  0  0  0  0  0  0  0
   21.3154  -16.8121    0.0000 C    0  0  0  0  0  0  0  0  0  0  0  0
   21.9804  -15.6595    0.0000 C    0  0  0  0  0  0  0  0  0  0  0  0
   21.9804  -17.9554    0.0000 C    0  0  0  0  0  0  0  0  0  0  0  0
   23.3104  -15.6595    0.0000 C    0  0  0  0  0  0  0  0  0  0  0  0
   23.3104  -17.9554    0.0000 C    0  0  0  0  0  0  0  0  0  0  0  0
   23.9754  -16.8121    0.0000 C    0  0  0  0  0  0  0  0  0  0  0  0
   19.1077  -17.2460    0.0000 Rh   0  0  0  0  0  0  0  0  0  0  0  0
   17.8574  -17.7073    0.0000 H    0  0  0  0  0  0  0  0  0  0  0  0
   19.3294  -15.9519    0.0000 H    0  0  0  0  0  0  0  0  0  0  0  0
   21.3154  -19.1080    0.0000 P    0  0  0  0  0  0  0  0  0  0  0  0
   16.8821  -15.4019    0.0000 P    0  0  0  0  0  0  0  0  0  0  0  0
   15.6139  -12.1123    0.0000 C    0  0  0  0  0  0  0  0  0  0  0  0
   16.4741  -13.1320    0.0000 C    0  0  0  0  0  0  0  0  0  0  0  0
   14.3018  -12.3519    0.0000 C    0  0  0  0  0  0  0  0  0  0  0  0
   16.0218  -14.3823    0.0000 C    0  0  0  0  0  0  0  0  0  0  0  0
   13.8495  -13.6022    0.0000 C    0  0  0  0  0  0  0  0  0  0  0  0
   14.7098  -14.6219    0.0000 C    0  0  0  0  0  0  0  0  0  0  0  0
   14.5853  -18.0619    0.0000 C    0  0  0  0  0  0  0  0  0  0  0  0
   15.7384  -17.3880    0.0000 C    0  0  0  0  0  0  0  0  0  0  0  0
   13.4326  -17.4059    0.0000 C    0  0  0  0  0  0  0  0  0  0  0  0
   15.7294  -16.0674    0.0000 C    0  0  0  0  0  0  0  0  0  0  0  0
   13.4236  -16.0849    0.0000 C    0  0  0  0  0  0  0  0  0  0  0  0
   14.5768  -15.4109    0.0000 C    0  0  0  0  0  0  0  0  0  0  0  0
   18.8771  -18.5586    0.0000 O    0  0  0  0  0  0  0  0  0  0  0  0
   17.6276  -19.0142    0.0000 N    0  3  0  0  0  0  0  0  0  0  0  0
   16.6082  -18.1599    0.0000 O    0  5  0  0  0  0  0  0  0  0  0  0
   17.3974  -20.3241    0.0000 O    0  0  0  0  0  0  0  0  0  0  0  0
  1  2  1  0  0  0  0
  1  3  2  0  0  0  0
  2  4  2  0  0  0  0
  3  5  1  0  0  0  0
  4  6  1  0  0  0  0
  5  6  2  0  0  0  0
  7  8  2  0  0  0  0
  7  9  1  0  0  0  0
  8 10  1  0  0  0  0
  9 11  2  0  0  0  0
 10 12  2  0  0  0  0
 11 12  1  0  0  0  0
 13 14  2  0  0  0  0
 13 15  1  0  0  0  0
 14 16  1  0  0  0  0
 15 17  2  0  0  0  0
 16 18  2  0  0  0  0
 17 18  1  0  0  0  0
 19 20  2  0  0  0  0
 19 21  1  0  0  0  0
 20 22  1  0  0  0  0
 21 23  2  0  0  0  0
 22 24  2  0  0  0  0
 23 24  1  0  0  0  0
 25 26  1  0  0  0  0
 25 27  1  0  0  0  0
 25 28  1  0  0  0  0
 21 28  1  0  0  0  0
 15 28  1  0  0  0  0
 11 28  1  0  0  0  0
 25 29  1  0  0  0  0
  2 29  1  0  0  0  0
 30 31  1  0  0  0  0
 30 32  2  0  0  0  0
 31 33  2  0  0  0  0
 32 34  1  0  0  0  0
 33 35  1  0  0  0  0
 34 35  2  0  0  0  0
 29 33  1  0  0  0  0
 36 37  1  0  0  0  0
 36 38  2  0  0  0  0
 37 39  2  0  0  0  0
 38 40  1  0  0  0  0
 39 41  1  0  0  0  0
 40 41  2  0  0  0  0
 29 39  1  0  0  0  0
 25 42  1  0  0  0  0
 43 44  1  0  0  0  0
 43 45  2  0  0  0  0
 42 43  1  0  0  0  0
M  END
> <NMREDATA_VERSION>
1.1

> <NMREDATA_LEVEL>
0

> <NMREDATA_SOLVENT>
THF

> <NMREDATA_TEMPERATURE>
213

> <NMREDATA_FORMULA>
C36H36NO3P2Rh

> <NMREDATA_SMILES>
ON(=O)O[RhH2](P(c1ccccc1)(c1ccccc1)c1ccccc1)P(c1ccccc1)(c1ccccc1)c1ccccc1

> <NMREDATA_ASSIGNMENT>
Rh25, 529.00, 25

> <NMREDATA_1D_103Rh>
529.00, L=Rh25

$$$$

  ACD/LABS03292412582D

 61 69  0  0  0  0  0  0  0  0  1 V2000
   26.8484  -14.9823    0.0000 C    0  0  0  0  0  0  0  0  0  0  0  0
   25.8236  -15.8350    0.0000 C    0  0  0  0  0  0  0  0  0  0  0  0
   26.6132  -13.6690    0.0000 C    0  0  0  0  0  0  0  0  0  0  0  0
   24.5757  -15.3707    0.0000 C    0  0  0  0  0  0  0  0  0  0  0  0
   25.3730  -13.2086    0.0000 C    0  0  0  0  0  0  0  0  0  0  0  0
   24.3482  -14.0613    0.0000 C    0  0  0  0  0  0  0  0  0  0  0  0
   19.6474  -11.6135    0.0000 C    0  0  0  0  0  0  0  0  0  0  0  0
   20.7999  -10.9476    0.0000 C    0  0  0  0  0  0  0  0  0  0  0  0
   19.6469  -12.9446    0.0000 C    0  0  0  0  0  0  0  0  0  0  0  0
   21.9524  -11.6130    0.0000 C    0  0  0  0  0  0  0  0  0  0  0  0
   20.7994  -13.6100    0.0000 C    0  0  0  0  0  0  0  0  0  0  0  0
   21.9519  -12.9440    0.0000 C    0  0  0  0  0  0  0  0  0  0  0  0
   25.3341  -10.8820    0.0000 C    0  0  0  0  0  0  0  0  0  0  0  0
   24.4775   -9.8650    0.0000 C    0  0  0  0  0  0  0  0  0  0  0  0
   24.8776  -12.1338    0.0000 C    0  0  0  0  0  0  0  0  0  0  0  0
   23.1684  -10.0920    0.0000 C    0  0  0  0  0  0  0  0  0  0  0  0
   23.5612  -12.3572    0.0000 C    0  0  0  0  0  0  0  0  0  0  0  0
   22.7117  -11.3442    0.0000 C    0  0  0  0  0  0  0  0  0  0  0  0
   18.3033  -25.0633    0.0000 C    0  0  0  0  0  0  0  0  0  0  0  0
   19.3247  -25.9199    0.0000 C    0  0  0  0  0  0  0  0  0  0  0  0
   18.5446  -23.7589    0.0000 C    0  0  0  0  0  0  0  0  0  0  0  0
   20.5756  -25.4740    0.0000 C    0  0  0  0  0  0  0  0  0  0  0  0
   19.7923  -23.3011    0.0000 C    0  0  0  0  0  0  0  0  0  0  0  0
   20.8096  -24.1648    0.0000 C    0  0  0  0  0  0  0  0  0  0  0  0
   23.0975  -23.7142    0.0000 C    0  0  0  0  0  0  0  0  0  0  0  0
   23.9569  -22.7044    0.0000 C    0  0  0  0  0  0  0  0  0  0  0  0
   21.7880  -23.4806    0.0000 C    0  0  0  0  0  0  0  0  0  0  0  0
   23.5039  -21.4494    0.0000 C    0  0  0  0  0  0  0  0  0  0  0  0
   21.3426  -22.2300    0.0000 C    0  0  0  0  0  0  0  0  0  0  0  0
   22.1944  -21.2159    0.0000 C    0  0  0  0  0  0  0  0  0  0  0  0
   17.8682  -22.7843    0.0000 C    0  0  0  0  0  0  0  0  0  0  0  0
   16.5635  -22.5435    0.0000 C    0  0  0  0  0  0  0  0  0  0  0  0
   18.7248  -21.7629    0.0000 C    0  0  0  0  0  0  0  0  0  0  0  0
   16.1058  -21.2958    0.0000 C    0  0  0  0  0  0  0  0  0  0  0  0
   18.2790  -20.5120    0.0000 C    0  0  0  0  0  0  0  0  0  0  0  0
   16.9699  -20.2787    0.0000 C    0  0  0  0  0  0  0  0  0  0  0  0
   23.8075  -18.3686    0.0000 C    0  0  0  0  0  0  0  0  0  0  0  0
   23.3557  -19.6124    0.0000 C    0  0  0  0  0  0  0  0  0  0  0  0
   25.1169  -18.1411    0.0000 C    0  0  0  0  0  0  0  0  0  0  0  0
   24.2084  -20.6372    0.0000 C    0  0  0  0  0  0  0  0  0  0  0  0
   25.9691  -19.1657    0.0000 C    0  0  0  0  0  0  0  0  0  0  0  0
   25.5217  -20.4020    0.0000 C    0  0  0  0  0  0  0  0  0  0  0  0
   21.9386  -18.2001    0.0000 C    0  0  0  0  0  0  0  0  0  0  0  0
   20.6987  -17.7405    0.0000 C    0  0  0  0  0  0  0  0  0  0  0  0
   22.1655  -19.5093    0.0000 C    0  0  0  0  0  0  0  0  0  0  0  0
   19.6814  -18.5975    0.0000 C    0  0  0  0  0  0  0  0  0  0  0  0
   21.1407  -20.3619    0.0000 C    0  0  0  0  0  0  0  0  0  0  0  0
   19.9091  -19.9065    0.0000 C    0  0  0  0  0  0  0  0  0  0  0  0
   27.3592  -12.1636    0.0000 C    0  0  0  0  0  0  0  0  0  0  0  0
   27.5866  -13.4730    0.0000 C    0  0  0  0  0  0  0  0  0  0  0  0
   28.3840  -11.3109    0.0000 C    0  0  0  0  0  0  0  0  0  0  0  0
   28.8389  -13.9298    0.0000 C    0  0  0  0  0  0  0  0  0  0  0  0
   29.6244  -11.7709    0.0000 C    0  0  0  0  0  0  0  0  0  0  0  0
   29.8594  -13.0846    0.0000 C    0  0  0  0  0  0  0  0  0  0  0  0
   22.1138  -16.3357    0.0000 Rh   0  0  0  0  0  0  0  0  0  0  0  0
   21.2573  -15.3187    0.0000 Cl   0  0  0  0  0  0  0  0  0  0  0  0
   23.4293  -16.3272    0.0000 H    0  0  0  0  0  0  0  0  0  0  0  0
   20.7969  -16.5588    0.0000 H    0  0  0  0  0  0  0  0  0  0  0  0
   22.9505  -17.3513    0.0000 P    0  0  0  0  0  0  0  0  0  0  0  0
   20.0334  -21.9960    0.0000 P    0  0  0  0  0  0  0  0  0  0  0  0
   23.1044  -13.6095    0.0000 P    0  0  0  0  0  0  0  0  0  0  0  0
  1  2  1  0  0  0  0
  1  3  2  0  0  0  0
  2  4  2  0  0  0  0
  3  5  1  0  0  0  0
  4  6  1  0  0  0  0
  5  6  2  0  0  0  0
  7  8  1  0  0  0  0
  7  9  2  0  0  0  0
  8 10  2  0  0  0  0
  9 11  1  0  0  0  0
 10 12  1  0  0  0  0
 11 12  2  0  0  0  0
 13 14  1  0  0  0  0
 13 15  2  0  0  0  0
 14 16  2  0  0  0  0
 15 17  1  0  0  0  0
 16 18  1  0  0  0  0
 17 18  2  0  0  0  0
 19 20  1  0  0  0  0
 19 21  2  0  0  0  0
 20 22  2  0  0  0  0
 21 23  1  0  0  0  0
 22 24  1  0  0  0  0
 23 24  2  0  0  0  0
 25 26  1  0  0  0  0
 25 27  2  0  0  0  0
 26 28  2  0  0  0  0
 27 29  1  0  0  0  0
 28 30  1  0  0  0  0
 29 30  2  0  0  0  0
 31 32  1  0  0  0  0
 31 33  2  0  0  0  0
 32 34  2  0  0  0  0
 33 35  1  0  0  0  0
 34 36  1  0  0  0  0
 35 36  2  0  0  0  0
 37 38  1  0  0  0  0
 37 39  2  0  0  0  0
 38 40  2  0  0  0  0
 39 41  1  0  0  0  0
 40 42  1  0  0  0  0
 41 42  2  0  0  0  0
 43 44  1  0  0  0  0
 43 45  2  0  0  0  0
 44 46  2  0  0  0  0
 45 47  1  0  0  0  0
 46 48  1  0  0  0  0
 47 48  2  0  0  0  0
 49 50  1  0  0  0  0
 49 51  2  0  0  0  0
 50 52  2  0  0  0  0
 51 53  1  0  0  0  0
 52 54  1  0  0  0  0
 53 54  2  0  0  0  0
 55 56  1  0  0  0  0
 55 57  1  0  0  0  0
 55 58  1  0  0  0  0
 55 59  1  0  0  0  0
 55 60  1  0  0  0  0
 55 61  1  0  0  0  0
 50 59  1  0  0  0  0
 43 59  1  0  0  0  0
 37 59  1  0  0  0  0
 33 60  1  0  0  0  0
 29 60  1  0  0  0  0
 23 60  1  0  0  0  0
 17 61  1  0  0  0  0
 12 61  1  0  0  0  0
  6 61  1  0  0  0  0
M  END
> <NMREDATA_VERSION>
1.1

> <NMREDATA_LEVEL>
0

> <NMREDATA_SOLVENT>
DCCl3

> <NMREDATA_TEMPERATURE>
247

> <NMREDATA_FORMULA>
C54H50ClP3Rh

> <NMREDATA_SMILES>
Cl[RhH2](P(c1ccccc1)(c1ccccc1)c1ccccc1)(P(c1ccccc1)(c1ccccc1)c1ccccc1)P(c1ccccc1)(c1ccccc1)c1ccccc1

> <NMREDATA_ASSIGNMENT>
Rh55, 57.00, 55

> <NMREDATA_1D_103Rh>
57.00, L=Rh55

$$$$

  ACD/LABS03292412582D

 61 69  0  0  0  0  0  0  0  0  1 V2000
   26.8484  -14.9823    0.0000 C    0  0  0  0  0  0  0  0  0  0  0  0
   25.8236  -15.8350    0.0000 C    0  0  0  0  0  0  0  0  0  0  0  0
   26.6132  -13.6690    0.0000 C    0  0  0  0  0  0  0  0  0  0  0  0
   24.5757  -15.3707    0.0000 C    0  0  0  0  0  0  0  0  0  0  0  0
   25.3730  -13.2086    0.0000 C    0  0  0  0  0  0  0  0  0  0  0  0
   24.3482  -14.0613    0.0000 C    0  0  0  0  0  0  0  0  0  0  0  0
   19.6474  -11.6135    0.0000 C    0  0  0  0  0  0  0  0  0  0  0  0
   20.7999  -10.9476    0.0000 C    0  0  0  0  0  0  0  0  0  0  0  0
   19.6469  -12.9446    0.0000 C    0  0  0  0  0  0  0  0  0  0  0  0
   21.9524  -11.6130    0.0000 C    0  0  0  0  0  0  0  0  0  0  0  0
   20.7994  -13.6100    0.0000 C    0  0  0  0  0  0  0  0  0  0  0  0
   21.9519  -12.9440    0.0000 C    0  0  0  0  0  0  0  0  0  0  0  0
   25.3341  -10.8820    0.0000 C    0  0  0  0  0  0  0  0  0  0  0  0
   24.4775   -9.8650    0.0000 C    0  0  0  0  0  0  0  0  0  0  0  0
   24.8776  -12.1338    0.0000 C    0  0  0  0  0  0  0  0  0  0  0  0
   23.1684  -10.0920    0.0000 C    0  0  0  0  0  0  0  0  0  0  0  0
   23.5612  -12.3572    0.0000 C    0  0  0  0  0  0  0  0  0  0  0  0
   22.7117  -11.3442    0.0000 C    0  0  0  0  0  0  0  0  0  0  0  0
   18.3033  -25.0633    0.0000 C    0  0  0  0  0  0  0  0  0  0  0  0
   19.3247  -25.9199    0.0000 C    0  0  0  0  0  0  0  0  0  0  0  0
   18.5446  -23.7589    0.0000 C    0  0  0  0  0  0  0  0  0  0  0  0
   20.5756  -25.4740    0.0000 C    0  0  0  0  0  0  0  0  0  0  0  0
   19.7923  -23.3011    0.0000 C    0  0  0  0  0  0  0  0  0  0  0  0
   20.8096  -24.1648    0.0000 C    0  0  0  0  0  0  0  0  0  0  0  0
   23.0975  -23.7142    0.0000 C    0  0  0  0  0  0  0  0  0  0  0  0
   23.9569  -22.7044    0.0000 C    0  0  0  0  0  0  0  0  0  0  0  0
   21.7880  -23.4806    0.0000 C    0  0  0  0  0  0  0  0  0  0  0  0
   23.5039  -21.4494    0.0000 C    0  0  0  0  0  0  0  0  0  0  0  0
   21.3426  -22.2300    0.0000 C    0  0  0  0  0  0  0  0  0  0  0  0
   22.1944  -21.2159    0.0000 C    0  0  0  0  0  0  0  0  0  0  0  0
   17.8682  -22.7843    0.0000 C    0  0  0  0  0  0  0  0  0  0  0  0
   16.5635  -22.5435    0.0000 C    0  0  0  0  0  0  0  0  0  0  0  0
   18.7248  -21.7629    0.0000 C    0  0  0  0  0  0  0  0  0  0  0  0
   16.1058  -21.2958    0.0000 C    0  0  0  0  0  0  0  0  0  0  0  0
   18.2790  -20.5120    0.0000 C    0  0  0  0  0  0  0  0  0  0  0  0
   16.9699  -20.2787    0.0000 C    0  0  0  0  0  0  0  0  0  0  0  0
   23.8075  -18.3686    0.0000 C    0  0  0  0  0  0  0  0  0  0  0  0
   23.3557  -19.6124    0.0000 C    0  0  0  0  0  0  0  0  0  0  0  0
   25.1169  -18.1411    0.0000 C    0  0  0  0  0  0  0  0  0  0  0  0
   24.2084  -20.6372    0.0000 C    0  0  0  0  0  0  0  0  0  0  0  0
   25.9691  -19.1657    0.0000 C    0  0  0  0  0  0  0  0  0  0  0  0
   25.5217  -20.4020    0.0000 C    0  0  0  0  0  0  0  0  0  0  0  0
   21.9386  -18.2001    0.0000 C    0  0  0  0  0  0  0  0  0  0  0  0
   20.6987  -17.7405    0.0000 C    0  0  0  0  0  0  0  0  0  0  0  0
   22.1655  -19.5093    0.0000 C    0  0  0  0  0  0  0  0  0  0  0  0
   19.6814  -18.5975    0.0000 C    0  0  0  0  0  0  0  0  0  0  0  0
   21.1407  -20.3619    0.0000 C    0  0  0  0  0  0  0  0  0  0  0  0
   19.9091  -19.9065    0.0000 C    0  0  0  0  0  0  0  0  0  0  0  0
   27.3592  -12.1636    0.0000 C    0  0  0  0  0  0  0  0  0  0  0  0
   27.5866  -13.4730    0.0000 C    0  0  0  0  0  0  0  0  0  0  0  0
   28.3840  -11.3109    0.0000 C    0  0  0  0  0  0  0  0  0  0  0  0
   28.8389  -13.9298    0.0000 C    0  0  0  0  0  0  0  0  0  0  0  0
   29.6244  -11.7709    0.0000 C    0  0  0  0  0  0  0  0  0  0  0  0
   29.8594  -13.0846    0.0000 C    0  0  0  0  0  0  0  0  0  0  0  0
   22.1138  -16.3357    0.0000 Rh   0  0  0  0  0  0  0  0  0  0  0  0
   21.2573  -15.3187    0.0000 Cl   0  0  0  0  0  0  0  0  0  0  0  0
   23.4293  -16.3272    0.0000 H    0  0  0  0  0  0  0  0  0  0  0  0
   20.7969  -16.5588    0.0000 H    0  0  0  0  0  0  0  0  0  0  0  0
   22.9505  -17.3513    0.0000 P    0  0  0  0  0  0  0  0  0  0  0  0
   20.0334  -21.9960    0.0000 P    0  0  0  0  0  0  0  0  0  0  0  0
   23.1044  -13.6095    0.0000 P    0  0  0  0  0  0  0  0  0  0  0  0
  1  2  1  0  0  0  0
  1  3  2  0  0  0  0
  2  4  2  0  0  0  0
  3  5  1  0  0  0  0
  4  6  1  0  0  0  0
  5  6  2  0  0  0  0
  7  8  1  0  0  0  0
  7  9  2  0  0  0  0
  8 10  2  0  0  0  0
  9 11  1  0  0  0  0
 10 12  1  0  0  0  0
 11 12  2  0  0  0  0
 13 14  1  0  0  0  0
 13 15  2  0  0  0  0
 14 16  2  0  0  0  0
 15 17  1  0  0  0  0
 16 18  1  0  0  0  0
 17 18  2  0  0  0  0
 19 20  1  0  0  0  0
 19 21  2  0  0  0  0
 20 22  2  0  0  0  0
 21 23  1  0  0  0  0
 22 24  1  0  0  0  0
 23 24  2  0  0  0  0
 25 26  1  0  0  0  0
 25 27  2  0  0  0  0
 26 28  2  0  0  0  0
 27 29  1  0  0  0  0
 28 30  1  0  0  0  0
 29 30  2  0  0  0  0
 31 32  1  0  0  0  0
 31 33  2  0  0  0  0
 32 34  2  0  0  0  0
 33 35  1  0  0  0  0
 34 36  1  0  0  0  0
 35 36  2  0  0  0  0
 37 38  1  0  0  0  0
 37 39  2  0  0  0  0
 38 40  2  0  0  0  0
 39 41  1  0  0  0  0
 40 42  1  0  0  0  0
 41 42  2  0  0  0  0
 43 44  1  0  0  0  0
 43 45  2  0  0  0  0
 44 46  2  0  0  0  0
 45 47  1  0  0  0  0
 46 48  1  0  0  0  0
 47 48  2  0  0  0  0
 49 50  1  0  0  0  0
 49 51  2  0  0  0  0
 50 52  2  0  0  0  0
 51 53  1  0  0  0  0
 52 54  1  0  0  0  0
 53 54  2  0  0  0  0
 55 56  1  0  0  0  0
 55 57  1  0  0  0  0
 55 58  1  0  0  0  0
 55 59  1  0  0  0  0
 55 60  1  0  0  0  0
 55 61  1  0  0  0  0
 50 59  1  0  0  0  0
 43 59  1  0  0  0  0
 37 59  1  0  0  0  0
 33 60  1  0  0  0  0
 29 60  1  0  0  0  0
 23 60  1  0  0  0  0
 17 61  1  0  0  0  0
 12 61  1  0  0  0  0
  6 61  1  0  0  0  0
M  END
> <NMREDATA_VERSION>
1.1

> <NMREDATA_LEVEL>
0

> <NMREDATA_SOLVENT>
toluene-d8

> <NMREDATA_TEMPERATURE>
247

> <NMREDATA_FORMULA>
C54H50ClP3Rh

> <NMREDATA_SMILES>
Cl[RhH2](P(c1ccccc1)(c1ccccc1)c1ccccc1)(P(c1ccccc1)(c1ccccc1)c1ccccc1)P(c1ccccc1)(c1ccccc1)c1ccccc1

> <NMREDATA_ASSIGNMENT>
Rh55, 15.00, 55

> <NMREDATA_1D_103Rh>
15.00, L=Rh55

$$$$

  ACD/LABS03292412592D

 16 15  0  0  0  0  0  0  0  0  1 V2000
   21.0717  -16.6568    0.0000 Rh   0  0  0  0  0  0  0  0  0  0  0  0
   21.0717  -14.8935    0.0000 Cl   0  0  0  0  0  0  0  0  0  0  0  0
   19.5553  -17.5384    0.0000 H    0  0  0  0  0  0  0  0  0  0  0  0
   22.5881  -15.7751    0.0000 H    0  0  0  0  0  0  0  0  0  0  0  0
   19.5553  -15.7751    0.0000 P    0  0  0  0  0  0  0  0  0  0  0  0
   21.0717  -20.4888    0.0000 P    0  0  0  0  0  0  0  0  0  0  0  0
   22.5881  -17.5384    0.0000 P    0  0  0  0  0  0  0  0  0  0  0  0
   23.7283  -16.1865    0.0000 C    0  0  0  0  0  0  0  0  0  0  0  0
   21.9884  -19.1840    0.0000 C    0  0  0  0  0  0  0  0  0  0  0  0
   24.1162  -18.4081    0.0000 C    0  0  0  0  0  0  0  0  0  0  0  0
   19.3438  -20.7944    0.0000 C    0  0  0  0  0  0  0  0  0  0  0  0
   22.7996  -20.7944    0.0000 C    0  0  0  0  0  0  0  0  0  0  0  0
   21.0717  -22.2521    0.0000 C    0  0  0  0  0  0  0  0  0  0  0  0
   20.1550  -14.1177    0.0000 C    0  0  0  0  0  0  0  0  0  0  0  0
   18.4151  -17.1271    0.0000 C    0  0  0  0  0  0  0  0  0  0  0  0
   18.0272  -14.8935    0.0000 C    0  0  0  0  0  0  0  0  0  0  0  0
  1  2  1  0  0  0  0
  1  3  1  0  0  0  0
  1  4  1  0  0  0  0
  1  5  1  0  0  0  0
  1  6  1  0  0  0  0
  1  7  1  0  0  0  0
  7  8  1  0  0  0  0
  7  9  1  0  0  0  0
  7 10  1  0  0  0  0
  6 11  1  0  0  0  0
  6 12  1  0  0  0  0
  6 13  1  0  0  0  0
  5 14  1  0  0  0  0
  5 15  1  0  0  0  0
  5 16  1  0  0  0  0
M  END
> <NMREDATA_VERSION>
1.1

> <NMREDATA_LEVEL>
0

> <NMREDATA_SOLVENT>
CD2Cl2

> <NMREDATA_TEMPERATURE>
312

> <NMREDATA_FORMULA>
C9H32ClP3Rh

> <NMREDATA_SMILES>
CP([RhH2](P(C)(C)C)(P(C)(C)C)Cl)(C)C

> <NMREDATA_ASSIGNMENT>
Rh1, -319.00, 1

> <NMREDATA_1D_103Rh>
-319.00, L=Rh1

$$$$

  ACD/LABS03292413032D

 70 78  0  0  0  0  0  0  0  0  1 V2000
   27.9387  -19.3730    0.0000 C    0  0  0  0  0  0  0  0  0  0  0  0
   27.7080  -18.0600    0.0000 C    0  0  0  0  0  0  0  0  0  0  0  0
   26.9187  -20.2151    0.0000 C    0  0  0  0  0  0  0  0  0  0  0  0
   26.4573  -17.5992    0.0000 C    0  0  0  0  0  0  0  0  0  0  0  0
   25.6680  -19.7538    0.0000 C    0  0  0  0  0  0  0  0  0  0  0  0
   25.4373  -18.4595    0.0000 C    0  0  0  0  0  0  0  0  0  0  0  0
   30.5110  -21.0404    0.0000 C    0  0  0  0  0  0  0  0  0  0  0  0
   29.6598  -20.0199    0.0000 C    0  0  0  0  0  0  0  0  0  0  0  0
   30.0587  -22.2911    0.0000 C    0  0  0  0  0  0  0  0  0  0  0  0
   28.3468  -20.2506    0.0000 C    0  0  0  0  0  0  0  0  0  0  0  0
   28.7462  -22.5217    0.0000 C    0  0  0  0  0  0  0  0  0  0  0  0
   27.8945  -21.5012    0.0000 C    0  0  0  0  0  0  0  0  0  0  0  0
   24.6303  -14.3171    0.0000 C    0  0  0  0  0  0  0  0  0  0  0  0
   25.6503  -15.1683    0.0000 C    0  0  0  0  0  0  0  0  0  0  0  0
   23.3796  -14.7607    0.0000 C    0  0  0  0  0  0  0  0  0  0  0  0
   25.4110  -16.4813    0.0000 C    0  0  0  0  0  0  0  0  0  0  0  0
   23.1489  -16.0732    0.0000 C    0  0  0  0  0  0  0  0  0  0  0  0
   24.1603  -16.9335    0.0000 C    0  0  0  0  0  0  0  0  0  0  0  0
   20.4529  -16.6233    0.0000 C    0  0  0  0  0  0  0  0  0  0  0  0
   20.2223  -15.3194    0.0000 C    0  0  0  0  0  0  0  0  0  0  0  0
   19.4238  -17.4836    0.0000 C    0  0  0  0  0  0  0  0  0  0  0  0
   18.9716  -14.8581    0.0000 C    0  0  0  0  0  0  0  0  0  0  0  0
   18.1823  -17.0223    0.0000 C    0  0  0  0  0  0  0  0  0  0  0  0
   17.9516  -15.7097    0.0000 C    0  0  0  0  0  0  0  0  0  0  0  0
   17.6054  -24.9166    0.0000 C    0  0  0  0  0  0  0  0  0  0  0  0
   16.2928  -25.1472    0.0000 C    0  0  0  0  0  0  0  0  0  0  0  0
   18.0581  -23.6659    0.0000 C    0  0  0  0  0  0  0  0  0  0  0  0
   15.4412  -24.1181    0.0000 C    0  0  0  0  0  0  0  0  0  0  0  0
   17.2064  -22.6454    0.0000 C    0  0  0  0  0  0  0  0  0  0  0  0
   15.8934  -22.8761    0.0000 C    0  0  0  0  0  0  0  0  0  0  0  0
   22.8914  -22.0249    0.0000 C    0  0  0  0  0  0  0  0  0  0  0  0
   23.7431  -21.0049    0.0000 C    0  0  0  0  0  0  0  0  0  0  0  0
   23.3527  -23.2756    0.0000 C    0  0  0  0  0  0  0  0  0  0  0  0
   25.0561  -21.2351    0.0000 C    0  0  0  0  0  0  0  0  0  0  0  0
   24.6658  -23.5062    0.0000 C    0  0  0  0  0  0  0  0  0  0  0  0
   25.5174  -22.4862    0.0000 C    0  0  0  0  0  0  0  0  0  0  0  0
   16.3106  -21.7319    0.0000 C    0  0  0  0  0  0  0  0  0  0  0  0
   17.4634  -21.0759    0.0000 C    0  0  0  0  0  0  0  0  0  0  0  0
   15.1664  -21.0668    0.0000 C    0  0  0  0  0  0  0  0  0  0  0  0
   17.4725  -19.7451    0.0000 C    0  0  0  0  0  0  0  0  0  0  0  0
   15.1664  -19.7360    0.0000 C    0  0  0  0  0  0  0  0  0  0  0  0
   16.3283  -19.0805    0.0000 C    0  0  0  0  0  0  0  0  0  0  0  0
   21.0030  -24.9698    0.0000 C    0  0  0  0  0  0  0  0  0  0  0  0
   19.9825  -24.1181    0.0000 C    0  0  0  0  0  0  0  0  0  0  0  0
   20.7723  -26.2823    0.0000 C    0  0  0  0  0  0  0  0  0  0  0  0
   18.7318  -24.5703    0.0000 C    0  0  0  0  0  0  0  0  0  0  0  0
   19.5216  -26.7350    0.0000 C    0  0  0  0  0  0  0  0  0  0  0  0
   18.5012  -25.8833    0.0000 C    0  0  0  0  0  0  0  0  0  0  0  0
   22.1558  -19.6919    0.0000 Rh   0  0  0  0  0  0  0  0  0  0  0  0
   22.3865  -21.0049    0.0000 Cl   0  0  0  0  0  0  0  0  0  0  0  0
   23.4592  -19.9312    0.0000 H    0  0  0  0  0  0  0  0  0  0  0  0
   21.7036  -18.4504    0.0000 H    0  0  0  0  0  0  0  0  0  0  0  0
   21.1358  -20.5522    0.0000 P    0  0  0  0  0  0  0  0  0  0  0  0
   20.9051  -19.2488    0.0000 P    0  0  0  0  0  0  0  0  0  0  0  0
   23.1667  -18.8498    0.0000 P    0  0  0  0  0  0  0  0  0  0  0  0
   24.1867  -17.9981    0.0000 C    0  0  0  0  0  0  0  0  0  0  0  0
   22.3246  -17.8298    0.0000 C    0  0  0  0  0  0  0  0  0  0  0  0
   26.5815  -21.7319    0.0000 C    0  0  0  0  0  0  0  0  0  0  0  0
   19.3706  -23.4353    0.0000 C    0  0  0  0  0  0  0  0  0  0  0  0
   21.9074  -16.5254    0.0000 C    0  0  0  0  0  0  0  0  0  0  0  0
   19.6545  -18.7875    0.0000 C    0  0  0  0  0  0  0  0  0  0  0  0
   18.6345  -19.0982    0.0000 C    0  0  0  0  0  0  0  0  0  0  0  0
   21.5880  -21.7942    0.0000 C    0  0  0  0  0  0  0  0  0  0  0  0
   19.9825  -21.2173    0.0000 C    0  0  0  0  0  0  0  0  0  0  0  0
   22.6440  -12.8090    0.0000 C    0  0  0  0  0  0  0  0  0  0  0  0
   21.3928  -12.3476    0.0000 C    0  0  0  0  0  0  0  0  0  0  0  0
   22.8559  -14.1220    0.0000 C    0  0  0  0  0  0  0  0  0  0  0  0
   20.3728  -13.1907    0.0000 C    0  0  0  0  0  0  0  0  0  0  0  0
   21.8364  -14.9731    0.0000 C    0  0  0  0  0  0  0  0  0  0  0  0
   20.5949  -14.5032    0.0000 C    0  0  0  0  0  0  0  0  0  0  0  0
  1  2  1  0  0  0  0
  1  3  2  0  0  0  0
  2  4  2  0  0  0  0
  3  5  1  0  0  0  0
  4  6  1  0  0  0  0
  5  6  2  0  0  0  0
  7  8  1  0  0  0  0
  7  9  2  0  0  0  0
  8 10  2  0  0  0  0
  9 11  1  0  0  0  0
 10 12  1  0  0  0  0
 11 12  2  0  0  0  0
 13 14  1  0  0  0  0
 13 15  2  0  0  0  0
 14 16  2  0  0  0  0
 15 17  1  0  0  0  0
 16 18  1  0  0  0  0
 17 18  2  0  0  0  0
 19 20  1  0  0  0  0
 19 21  2  0  0  0  0
 20 22  2  0  0  0  0
 21 23  1  0  0  0  0
 22 24  1  0  0  0  0
 23 24  2  0  0  0  0
 25 26  1  0  0  0  0
 25 27  2  0  0  0  0
 26 28  2  0  0  0  0
 27 29  1  0  0  0  0
 28 30  1  0  0  0  0
 29 30  2  0  0  0  0
 31 32  1  0  0  0  0
 31 33  2  0  0  0  0
 32 34  2  0  0  0  0
 33 35  1  0  0  0  0
 34 36  1  0  0  0  0
 35 36  2  0  0  0  0
 37 38  1  0  0  0  0
 37 39  2  0  0  0  0
 38 40  2  0  0  0  0
 39 41  1  0  0  0  0
 40 42  1  0  0  0  0
 41 42  2  0  0  0  0
 43 44  1  0  0  0  0
 43 45  2  0  0  0  0
 44 46  2  0  0  0  0
 45 47  1  0  0  0  0
 46 48  1  0  0  0  0
 47 48  2  0  0  0  0
 49 50  1  0  0  0  0
 49 51  1  0  0  0  0
 49 52  1  0  0  0  0
 49 53  1  0  0  0  0
 49 54  1  0  0  0  0
 49 55  1  0  0  0  0
 55 56  1  0  0  0  0
 55 57  1  0  0  0  0
 55 58  1  0  0  0  0
 54 59  1  0  0  0  0
 54 60  1  0  0  0  0
 54 61  1  0  0  0  0
 53 62  1  0  0  0  0
 53 63  1  0  0  0  0
 53 64  1  0  0  0  0
 44 64  1  0  0  0  0
 40 62  1  0  0  0  0
 31 63  1  0  0  0  0
 27 59  1  0  0  0  0
 21 61  1  0  0  0  0
 17 60  1  0  0  0  0
 65 66  1  0  0  0  0
 65 67  2  0  0  0  0
 66 68  2  0  0  0  0
 67 69  1  0  0  0  0
 68 70  1  0  0  0  0
 69 70  2  0  0  0  0
 57 69  1  0  0  0  0
 12 58  1  0  0  0  0
  6 56  1  0  0  0  0
M  END
> <NMREDATA_VERSION>
1.1

> <NMREDATA_LEVEL>
0

> <NMREDATA_SOLVENT>
toluene-d8

> <NMREDATA_TEMPERATURE>
295

> <NMREDATA_FORMULA>
C63H68ClP3Rh

> <NMREDATA_SMILES>
Cl[RhH2](P(Cc1ccccc1)(Cc1ccccc1)Cc1ccccc1)(P(Cc1ccccc1)(Cc1ccccc1)Cc1ccccc1)P(Cc1ccccc1)(Cc1ccccc1)Cc1ccccc1

> <NMREDATA_ASSIGNMENT>
Rh49, -393.00, 49

> <NMREDATA_1D_103Rh>
-393.00, L=Rh49

$$$$

  ACD/LABS03292413292D

 61 69  0  0  0  0  0  0  0  0  1 V2000
   18.0822   -6.8965    0.0000 C    0  0  0  0  0  0  0  0  0  0  0  0
   16.7694   -7.1270    0.0000 C    0  0  0  0  0  0  0  0  0  0  0  0
   18.9333   -7.9164    0.0000 C    0  0  0  0  0  0  0  0  0  0  0  0
   16.3173   -8.3774    0.0000 C    0  0  0  0  0  0  0  0  0  0  0  0
   18.4812   -9.1668    0.0000 C    0  0  0  0  0  0  0  0  0  0  0  0
   17.1687   -9.3973    0.0000 C    0  0  0  0  0  0  0  0  0  0  0  0
   11.0852   -7.9164    0.0000 C    0  0  0  0  0  0  0  0  0  0  0  0
   11.9367   -6.8965    0.0000 C    0  0  0  0  0  0  0  0  0  0  0  0
   11.5377   -9.1668    0.0000 C    0  0  0  0  0  0  0  0  0  0  0  0
   13.2398   -7.1270    0.0000 C    0  0  0  0  0  0  0  0  0  0  0  0
   12.8409   -9.3973    0.0000 C    0  0  0  0  0  0  0  0  0  0  0  0
   13.6924   -8.3774    0.0000 C    0  0  0  0  0  0  0  0  0  0  0  0
   15.0048   -4.6085    0.0000 C    0  0  0  0  0  0  0  0  0  0  0  0
   16.1577   -5.2734    0.0000 C    0  0  0  0  0  0  0  0  0  0  0  0
   13.8519   -5.2734    0.0000 C    0  0  0  0  0  0  0  0  0  0  0  0
   16.1577   -6.6039    0.0000 C    0  0  0  0  0  0  0  0  0  0  0  0
   13.8519   -6.6039    0.0000 C    0  0  0  0  0  0  0  0  0  0  0  0
   15.0048   -7.2688    0.0000 C    0  0  0  0  0  0  0  0  0  0  0  0
    7.0588  -15.1705    0.0000 C    0  0  0  0  0  0  0  0  0  0  0  0
    6.0393  -14.3102    0.0000 C    0  0  0  0  0  0  0  0  0  0  0  0
    8.3096  -14.7091    0.0000 C    0  0  0  0  0  0  0  0  0  0  0  0
    6.2609  -13.0066    0.0000 C    0  0  0  0  0  0  0  0  0  0  0  0
    8.5312  -13.3967    0.0000 C    0  0  0  0  0  0  0  0  0  0  0  0
    7.5113  -12.5452    0.0000 C    0  0  0  0  0  0  0  0  0  0  0  0
    7.5557  -10.2221    0.0000 C    0  0  0  0  0  0  0  0  0  0  0  0
    8.4160   -9.2022    0.0000 C    0  0  0  0  0  0  0  0  0  0  0  0
    8.0166  -11.4633    0.0000 C    0  0  0  0  0  0  0  0  0  0  0  0
    9.7196   -9.4327    0.0000 C    0  0  0  0  0  0  0  0  0  0  0  0
    9.3295  -11.6938    0.0000 C    0  0  0  0  0  0  0  0  0  0  0  0
   10.1805  -10.6831    0.0000 C    0  0  0  0  0  0  0  0  0  0  0  0
   11.5555  -14.4166    0.0000 C    0  0  0  0  0  0  0  0  0  0  0  0
   12.0076  -15.6670    0.0000 C    0  0  0  0  0  0  0  0  0  0  0  0
   10.2426  -14.1949    0.0000 C    0  0  0  0  0  0  0  0  0  0  0  0
   11.1561  -16.6869    0.0000 C    0  0  0  0  0  0  0  0  0  0  0  0
    9.3915  -15.2148    0.0000 C    0  0  0  0  0  0  0  0  0  0  0  0
    9.8437  -16.4652    0.0000 C    0  0  0  0  0  0  0  0  0  0  0  0
   15.7942  -14.9843    0.0000 C    0  0  0  0  0  0  0  0  0  0  0  0
   15.5722  -16.2968    0.0000 C    0  0  0  0  0  0  0  0  0  0  0  0
   14.7743  -14.1329    0.0000 C    0  0  0  0  0  0  0  0  0  0  0  0
   14.3218  -16.7578    0.0000 C    0  0  0  0  0  0  0  0  0  0  0  0
   13.5235  -14.5939    0.0000 C    0  0  0  0  0  0  0  0  0  0  0  0
   13.3019  -15.8975    0.0000 C    0  0  0  0  0  0  0  0  0  0  0  0
   13.6924  -12.5984    0.0000 C    0  0  0  0  0  0  0  0  0  0  0  0
   13.2398  -11.3480    0.0000 C    0  0  0  0  0  0  0  0  0  0  0  0
   12.8409  -13.6183    0.0000 C    0  0  0  0  0  0  0  0  0  0  0  0
   11.9367  -11.1175    0.0000 C    0  0  0  0  0  0  0  0  0  0  0  0
   11.5377  -13.3878    0.0000 C    0  0  0  0  0  0  0  0  0  0  0  0
   11.0852  -12.1374    0.0000 C    0  0  0  0  0  0  0  0  0  0  0  0
   16.3173  -13.0509    0.0000 C    0  0  0  0  0  0  0  0  0  0  0  0
   16.7694  -14.3013    0.0000 C    0  0  0  0  0  0  0  0  0  0  0  0
   17.1687  -12.0310    0.0000 C    0  0  0  0  0  0  0  0  0  0  0  0
   18.0822  -14.5318    0.0000 C    0  0  0  0  0  0  0  0  0  0  0  0
   18.4812  -12.2615    0.0000 C    0  0  0  0  0  0  0  0  0  0  0  0
   18.9333  -13.5119    0.0000 C    0  0  0  0  0  0  0  0  0  0  0  0
   15.0048   -9.9296    0.0000 Rh   0  0  0  0  0  0  0  0  0  0  0  0
   16.1577   -9.2643    0.0000 I    0  0  0  0  0  0  0  0  0  0  0  0
   13.8519   -9.2643    0.0000 H    0  0  0  0  0  0  0  0  0  0  0  0
   16.1577  -10.5945    0.0000 H    0  0  0  0  0  0  0  0  0  0  0  0
   15.0048   -8.5994    0.0000 P    0  0  0  0  0  0  0  0  0  0  0  0
    9.7816  -12.9446    0.0000 P    0  0  0  0  0  0  0  0  0  0  0  0
   15.0048  -12.8200    0.0000 P    0  0  0  0  0  0  0  0  0  0  0  0
  1  2  1  0  0  0  0
  1  3  2  0  0  0  0
  2  4  2  0  0  0  0
  3  5  1  0  0  0  0
  4  6  1  0  0  0  0
  5  6  2  0  0  0  0
  7  8  1  0  0  0  0
  7  9  2  0  0  0  0
  8 10  2  0  0  0  0
  9 11  1  0  0  0  0
 10 12  1  0  0  0  0
 11 12  2  0  0  0  0
 13 14  1  0  0  0  0
 13 15  2  0  0  0  0
 14 16  2  0  0  0  0
 15 17  1  0  0  0  0
 16 18  1  0  0  0  0
 17 18  2  0  0  0  0
 19 20  1  0  0  0  0
 19 21  2  0  0  0  0
 20 22  2  0  0  0  0
 21 23  1  0  0  0  0
 22 24  1  0  0  0  0
 23 24  2  0  0  0  0
 25 26  1  0  0  0  0
 25 27  2  0  0  0  0
 26 28  2  0  0  0  0
 27 29  1  0  0  0  0
 28 30  1  0  0  0  0
 29 30  2  0  0  0  0
 31 32  1  0  0  0  0
 31 33  2  0  0  0  0
 32 34  2  0  0  0  0
 33 35  1  0  0  0  0
 34 36  1  0  0  0  0
 35 36  2  0  0  0  0
 37 38  1  0  0  0  0
 37 39  2  0  0  0  0
 38 40  2  0  0  0  0
 39 41  1  0  0  0  0
 40 42  1  0  0  0  0
 41 42  2  0  0  0  0
 43 44  1  0  0  0  0
 43 45  2  0  0  0  0
 44 46  2  0  0  0  0
 45 47  1  0  0  0  0
 46 48  1  0  0  0  0
 47 48  2  0  0  0  0
 49 50  1  0  0  0  0
 49 51  2  0  0  0  0
 50 52  2  0  0  0  0
 51 53  1  0  0  0  0
 52 54  1  0  0  0  0
 53 54  2  0  0  0  0
 55 56  1  0  0  0  0
 55 57  1  0  0  0  0
 55 58  1  0  0  0  0
 55 59  1  0  0  0  0
 55 60  1  0  0  0  0
 55 61  1  0  0  0  0
 49 61  1  0  0  0  0
 43 61  1  0  0  0  0
 39 61  1  0  0  0  0
 33 60  1  0  0  0  0
 29 60  1  0  0  0  0
 23 60  1  0  0  0  0
 18 59  1  0  0  0  0
 12 59  1  0  0  0  0
  4 59  1  0  0  0  0
M  END
> <NMREDATA_VERSION>
1.1

> <NMREDATA_LEVEL>
0

> <NMREDATA_SOLVENT>
toluene-d8

> <NMREDATA_TEMPERATURE>
268

> <NMREDATA_FORMULA>
C54H50IP3Rh

> <NMREDATA_SMILES>
I[RhH2](P(c1ccccc1)(c1ccccc1)c1ccccc1)(P(c1ccccc1)(c1ccccc1)c1ccccc1)P(c1ccccc1)(c1ccccc1)c1ccccc1

> <NMREDATA_ASSIGNMENT>
Rh55, -80.00, 55

> <NMREDATA_1D_103Rh>
-80.00, L=Rh55

$$$$

  ACD/LABS03292413292D

 61 69  0  0  0  0  0  0  0  0  1 V2000
   18.0822   -6.8965    0.0000 C    0  0  0  0  0  0  0  0  0  0  0  0
   16.7694   -7.1270    0.0000 C    0  0  0  0  0  0  0  0  0  0  0  0
   18.9333   -7.9164    0.0000 C    0  0  0  0  0  0  0  0  0  0  0  0
   16.3173   -8.3774    0.0000 C    0  0  0  0  0  0  0  0  0  0  0  0
   18.4812   -9.1668    0.0000 C    0  0  0  0  0  0  0  0  0  0  0  0
   17.1687   -9.3973    0.0000 C    0  0  0  0  0  0  0  0  0  0  0  0
   11.0852   -7.9164    0.0000 C    0  0  0  0  0  0  0  0  0  0  0  0
   11.9367   -6.8965    0.0000 C    0  0  0  0  0  0  0  0  0  0  0  0
   11.5377   -9.1668    0.0000 C    0  0  0  0  0  0  0  0  0  0  0  0
   13.2398   -7.1270    0.0000 C    0  0  0  0  0  0  0  0  0  0  0  0
   12.8409   -9.3973    0.0000 C    0  0  0  0  0  0  0  0  0  0  0  0
   13.6924   -8.3774    0.0000 C    0  0  0  0  0  0  0  0  0  0  0  0
   15.0048   -4.6085    0.0000 C    0  0  0  0  0  0  0  0  0  0  0  0
   16.1577   -5.2734    0.0000 C    0  0  0  0  0  0  0  0  0  0  0  0
   13.8519   -5.2734    0.0000 C    0  0  0  0  0  0  0  0  0  0  0  0
   16.1577   -6.6039    0.0000 C    0  0  0  0  0  0  0  0  0  0  0  0
   13.8519   -6.6039    0.0000 C    0  0  0  0  0  0  0  0  0  0  0  0
   15.0048   -7.2688    0.0000 C    0  0  0  0  0  0  0  0  0  0  0  0
    7.0588  -15.1705    0.0000 C    0  0  0  0  0  0  0  0  0  0  0  0
    6.0393  -14.3102    0.0000 C    0  0  0  0  0  0  0  0  0  0  0  0
    8.3096  -14.7091    0.0000 C    0  0  0  0  0  0  0  0  0  0  0  0
    6.2609  -13.0066    0.0000 C    0  0  0  0  0  0  0  0  0  0  0  0
    8.5312  -13.3967    0.0000 C    0  0  0  0  0  0  0  0  0  0  0  0
    7.5113  -12.5452    0.0000 C    0  0  0  0  0  0  0  0  0  0  0  0
    7.5557  -10.2221    0.0000 C    0  0  0  0  0  0  0  0  0  0  0  0
    8.4160   -9.2022    0.0000 C    0  0  0  0  0  0  0  0  0  0  0  0
    8.0166  -11.4633    0.0000 C    0  0  0  0  0  0  0  0  0  0  0  0
    9.7196   -9.4327    0.0000 C    0  0  0  0  0  0  0  0  0  0  0  0
    9.3295  -11.6938    0.0000 C    0  0  0  0  0  0  0  0  0  0  0  0
   10.1805  -10.6831    0.0000 C    0  0  0  0  0  0  0  0  0  0  0  0
   11.5555  -14.4166    0.0000 C    0  0  0  0  0  0  0  0  0  0  0  0
   12.0076  -15.6670    0.0000 C    0  0  0  0  0  0  0  0  0  0  0  0
   10.2426  -14.1949    0.0000 C    0  0  0  0  0  0  0  0  0  0  0  0
   11.1561  -16.6869    0.0000 C    0  0  0  0  0  0  0  0  0  0  0  0
    9.3915  -15.2148    0.0000 C    0  0  0  0  0  0  0  0  0  0  0  0
    9.8437  -16.4652    0.0000 C    0  0  0  0  0  0  0  0  0  0  0  0
   15.7942  -14.9843    0.0000 C    0  0  0  0  0  0  0  0  0  0  0  0
   15.5722  -16.2968    0.0000 C    0  0  0  0  0  0  0  0  0  0  0  0
   14.7743  -14.1329    0.0000 C    0  0  0  0  0  0  0  0  0  0  0  0
   14.3218  -16.7578    0.0000 C    0  0  0  0  0  0  0  0  0  0  0  0
   13.5235  -14.5939    0.0000 C    0  0  0  0  0  0  0  0  0  0  0  0
   13.3019  -15.8975    0.0000 C    0  0  0  0  0  0  0  0  0  0  0  0
   13.6924  -12.5984    0.0000 C    0  0  0  0  0  0  0  0  0  0  0  0
   13.2398  -11.3480    0.0000 C    0  0  0  0  0  0  0  0  0  0  0  0
   12.8409  -13.6183    0.0000 C    0  0  0  0  0  0  0  0  0  0  0  0
   11.9367  -11.1175    0.0000 C    0  0  0  0  0  0  0  0  0  0  0  0
   11.5377  -13.3878    0.0000 C    0  0  0  0  0  0  0  0  0  0  0  0
   11.0852  -12.1374    0.0000 C    0  0  0  0  0  0  0  0  0  0  0  0
   16.3173  -13.0509    0.0000 C    0  0  0  0  0  0  0  0  0  0  0  0
   16.7694  -14.3013    0.0000 C    0  0  0  0  0  0  0  0  0  0  0  0
   17.1687  -12.0310    0.0000 C    0  0  0  0  0  0  0  0  0  0  0  0
   18.0822  -14.5318    0.0000 C    0  0  0  0  0  0  0  0  0  0  0  0
   18.4812  -12.2615    0.0000 C    0  0  0  0  0  0  0  0  0  0  0  0
   18.9333  -13.5119    0.0000 C    0  0  0  0  0  0  0  0  0  0  0  0
   15.0048   -9.9296    0.0000 Rh   0  0  0  0  0  0  0  0  0  0  0  0
   16.1577   -9.2643    0.0000 I    0  0  0  0  0  0  0  0  0  0  0  0
   13.8519   -9.2643    0.0000 H    0  0  0  0  0  0  0  0  0  0  0  0
   16.1577  -10.5945    0.0000 H    0  0  0  0  0  0  0  0  0  0  0  0
   15.0048   -8.5994    0.0000 P    0  0  0  0  0  0  0  0  0  0  0  0
    9.7816  -12.9446    0.0000 P    0  0  0  0  0  0  0  0  0  0  0  0
   15.0048  -12.8200    0.0000 P    0  0  0  0  0  0  0  0  0  0  0  0
  1  2  1  0  0  0  0
  1  3  2  0  0  0  0
  2  4  2  0  0  0  0
  3  5  1  0  0  0  0
  4  6  1  0  0  0  0
  5  6  2  0  0  0  0
  7  8  1  0  0  0  0
  7  9  2  0  0  0  0
  8 10  2  0  0  0  0
  9 11  1  0  0  0  0
 10 12  1  0  0  0  0
 11 12  2  0  0  0  0
 13 14  1  0  0  0  0
 13 15  2  0  0  0  0
 14 16  2  0  0  0  0
 15 17  1  0  0  0  0
 16 18  1  0  0  0  0
 17 18  2  0  0  0  0
 19 20  1  0  0  0  0
 19 21  2  0  0  0  0
 20 22  2  0  0  0  0
 21 23  1  0  0  0  0
 22 24  1  0  0  0  0
 23 24  2  0  0  0  0
 25 26  1  0  0  0  0
 25 27  2  0  0  0  0
 26 28  2  0  0  0  0
 27 29  1  0  0  0  0
 28 30  1  0  0  0  0
 29 30  2  0  0  0  0
 31 32  1  0  0  0  0
 31 33  2  0  0  0  0
 32 34  2  0  0  0  0
 33 35  1  0  0  0  0
 34 36  1  0  0  0  0
 35 36  2  0  0  0  0
 37 38  1  0  0  0  0
 37 39  2  0  0  0  0
 38 40  2  0  0  0  0
 39 41  1  0  0  0  0
 40 42  1  0  0  0  0
 41 42  2  0  0  0  0
 43 44  1  0  0  0  0
 43 45  2  0  0  0  0
 44 46  2  0  0  0  0
 45 47  1  0  0  0  0
 46 48  1  0  0  0  0
 47 48  2  0  0  0  0
 49 50  1  0  0  0  0
 49 51  2  0  0  0  0
 50 52  2  0  0  0  0
 51 53  1  0  0  0  0
 52 54  1  0  0  0  0
 53 54  2  0  0  0  0
 55 56  1  0  0  0  0
 55 57  1  0  0  0  0
 55 58  1  0  0  0  0
 55 59  1  0  0  0  0
 55 60  1  0  0  0  0
 55 61  1  0  0  0  0
 49 61  1  0  0  0  0
 43 61  1  0  0  0  0
 39 61  1  0  0  0  0
 33 60  1  0  0  0  0
 29 60  1  0  0  0  0
 23 60  1  0  0  0  0
 18 59  1  0  0  0  0
 12 59  1  0  0  0  0
  4 59  1  0  0  0  0
M  END
> <NMREDATA_VERSION>
1.1

> <NMREDATA_LEVEL>
0

> <NMREDATA_SOLVENT>
C6D6

> <NMREDATA_TEMPERATURE>
313

> <NMREDATA_FORMULA>
C54H50IP3Rh

> <NMREDATA_SMILES>
I[RhH2](P(c1ccccc1)(c1ccccc1)c1ccccc1)(P(c1ccccc1)(c1ccccc1)c1ccccc1)P(c1ccccc1)(c1ccccc1)c1ccccc1

> <NMREDATA_ASSIGNMENT>
Rh55, -644.00, 55

> <NMREDATA_1D_103Rh>
-644.00, L=Rh55

$$$$

  ACD/LABS03292413302D

 64 72  0  0  0  0  0  0  0  0  1 V2000
   18.0822   -6.8965    0.0000 C    0  0  0  0  0  0  0  0  0  0  0  0
   16.7694   -7.1270    0.0000 C    0  0  0  0  0  0  0  0  0  0  0  0
   18.9333   -7.9164    0.0000 C    0  0  0  0  0  0  0  0  0  0  0  0
   16.3173   -8.3774    0.0000 C    0  0  0  0  0  0  0  0  0  0  0  0
   18.4812   -9.1668    0.0000 C    0  0  0  0  0  0  0  0  0  0  0  0
   17.1687   -9.3973    0.0000 C    0  0  0  0  0  0  0  0  0  0  0  0
   11.0852   -7.9164    0.0000 C    0  0  0  0  0  0  0  0  0  0  0  0
   11.9367   -6.8965    0.0000 C    0  0  0  0  0  0  0  0  0  0  0  0
   11.5377   -9.1668    0.0000 C    0  0  0  0  0  0  0  0  0  0  0  0
   13.2398   -7.1270    0.0000 C    0  0  0  0  0  0  0  0  0  0  0  0
   12.8409   -9.3973    0.0000 C    0  0  0  0  0  0  0  0  0  0  0  0
   13.6924   -8.3774    0.0000 C    0  0  0  0  0  0  0  0  0  0  0  0
   15.0048   -4.6085    0.0000 C    0  0  0  0  0  0  0  0  0  0  0  0
   16.1577   -5.2734    0.0000 C    0  0  0  0  0  0  0  0  0  0  0  0
   13.8519   -5.2734    0.0000 C    0  0  0  0  0  0  0  0  0  0  0  0
   16.1577   -6.6039    0.0000 C    0  0  0  0  0  0  0  0  0  0  0  0
   13.8519   -6.6039    0.0000 C    0  0  0  0  0  0  0  0  0  0  0  0
   15.0048   -7.2688    0.0000 C    0  0  0  0  0  0  0  0  0  0  0  0
    7.0588  -15.1705    0.0000 C    0  0  0  0  0  0  0  0  0  0  0  0
    6.0393  -14.3102    0.0000 C    0  0  0  0  0  0  0  0  0  0  0  0
    8.3096  -14.7091    0.0000 C    0  0  0  0  0  0  0  0  0  0  0  0
    6.2609  -13.0066    0.0000 C    0  0  0  0  0  0  0  0  0  0  0  0
    8.5312  -13.3967    0.0000 C    0  0  0  0  0  0  0  0  0  0  0  0
    7.5113  -12.5452    0.0000 C    0  0  0  0  0  0  0  0  0  0  0  0
    7.5557  -10.2221    0.0000 C    0  0  0  0  0  0  0  0  0  0  0  0
    8.4160   -9.2022    0.0000 C    0  0  0  0  0  0  0  0  0  0  0  0
    8.0166  -11.4633    0.0000 C    0  0  0  0  0  0  0  0  0  0  0  0
    9.7196   -9.4327    0.0000 C    0  0  0  0  0  0  0  0  0  0  0  0
    9.3295  -11.6938    0.0000 C    0  0  0  0  0  0  0  0  0  0  0  0
   10.1805  -10.6831    0.0000 C    0  0  0  0  0  0  0  0  0  0  0  0
   11.5555  -14.4166    0.0000 C    0  0  0  0  0  0  0  0  0  0  0  0
   12.0076  -15.6670    0.0000 C    0  0  0  0  0  0  0  0  0  0  0  0
   10.2426  -14.1949    0.0000 C    0  0  0  0  0  0  0  0  0  0  0  0
   11.1561  -16.6869    0.0000 C    0  0  0  0  0  0  0  0  0  0  0  0
    9.3915  -15.2148    0.0000 C    0  0  0  0  0  0  0  0  0  0  0  0
    9.8437  -16.4652    0.0000 C    0  0  0  0  0  0  0  0  0  0  0  0
   15.7942  -14.9843    0.0000 C    0  0  0  0  0  0  0  0  0  0  0  0
   15.5722  -16.2968    0.0000 C    0  0  0  0  0  0  0  0  0  0  0  0
   14.7743  -14.1329    0.0000 C    0  0  0  0  0  0  0  0  0  0  0  0
   14.3218  -16.7578    0.0000 C    0  0  0  0  0  0  0  0  0  0  0  0
   13.5235  -14.5939    0.0000 C    0  0  0  0  0  0  0  0  0  0  0  0
   13.3019  -15.8975    0.0000 C    0  0  0  0  0  0  0  0  0  0  0  0
   13.6924  -12.5984    0.0000 C    0  0  0  0  0  0  0  0  0  0  0  0
   13.2398  -11.3480    0.0000 C    0  0  0  0  0  0  0  0  0  0  0  0
   12.8409  -13.6183    0.0000 C    0  0  0  0  0  0  0  0  0  0  0  0
   11.9367  -11.1175    0.0000 C    0  0  0  0  0  0  0  0  0  0  0  0
   11.5377  -13.3878    0.0000 C    0  0  0  0  0  0  0  0  0  0  0  0
   11.0852  -12.1374    0.0000 C    0  0  0  0  0  0  0  0  0  0  0  0
   16.3173  -13.0509    0.0000 C    0  0  0  0  0  0  0  0  0  0  0  0
   16.7694  -14.3013    0.0000 C    0  0  0  0  0  0  0  0  0  0  0  0
   17.1687  -12.0310    0.0000 C    0  0  0  0  0  0  0  0  0  0  0  0
   18.0822  -14.5318    0.0000 C    0  0  0  0  0  0  0  0  0  0  0  0
   18.4812  -12.2615    0.0000 C    0  0  0  0  0  0  0  0  0  0  0  0
   18.9333  -13.5119    0.0000 C    0  0  0  0  0  0  0  0  0  0  0  0
   15.0048   -9.9296    0.0000 Rh   0  0  0  0  0  0  0  0  0  0  0  0
   16.1577   -9.2643    0.0000 S    0  0  0  0  0  0  0  0  0  0  0  0
   13.8519   -9.2643    0.0000 H    0  0  0  0  0  0  0  0  0  0  0  0
   16.1577  -10.5945    0.0000 H    0  0  0  0  0  0  0  0  0  0  0  0
   15.0048   -8.5994    0.0000 P    0  0  0  0  0  0  0  0  0  0  0  0
    9.7816  -12.9446    0.0000 P    0  0  0  0  0  0  0  0  0  0  0  0
   15.0048  -12.8200    0.0000 P    0  0  0  0  0  0  0  0  0  0  0  0
   17.3221  -10.3355    0.0000 C    0  0  0  0  0  0  0  0  0  0  0  0
   18.3636  -10.0311    0.0000 C    0  0  0  0  0  0  0  0  0  0  0  0
   18.9245  -10.7041    0.0000 C    0  0  0  0  0  0  0  0  0  0  0  0
  1  2  1  0  0  0  0
  1  3  2  0  0  0  0
  2  4  2  0  0  0  0
  3  5  1  0  0  0  0
  4  6  1  0  0  0  0
  5  6  2  0  0  0  0
  7  8  1  0  0  0  0
  7  9  2  0  0  0  0
  8 10  2  0  0  0  0
  9 11  1  0  0  0  0
 10 12  1  0  0  0  0
 11 12  2  0  0  0  0
 13 14  1  0  0  0  0
 13 15  2  0  0  0  0
 14 16  2  0  0  0  0
 15 17  1  0  0  0  0
 16 18  1  0  0  0  0
 17 18  2  0  0  0  0
 19 20  1  0  0  0  0
 19 21  2  0  0  0  0
 20 22  2  0  0  0  0
 21 23  1  0  0  0  0
 22 24  1  0  0  0  0
 23 24  2  0  0  0  0
 25 26  1  0  0  0  0
 25 27  2  0  0  0  0
 26 28  2  0  0  0  0
 27 29  1  0  0  0  0
 28 30  1  0  0  0  0
 29 30  2  0  0  0  0
 31 32  1  0  0  0  0
 31 33  2  0  0  0  0
 32 34  2  0  0  0  0
 33 35  1  0  0  0  0
 34 36  1  0  0  0  0
 35 36  2  0  0  0  0
 37 38  1  0  0  0  0
 37 39  2  0  0  0  0
 38 40  2  0  0  0  0
 39 41  1  0  0  0  0
 40 42  1  0  0  0  0
 41 42  2  0  0  0  0
 43 44  1  0  0  0  0
 43 45  2  0  0  0  0
 44 46  2  0  0  0  0
 45 47  1  0  0  0  0
 46 48  1  0  0  0  0
 47 48  2  0  0  0  0
 49 50  1  0  0  0  0
 49 51  2  0  0  0  0
 50 52  2  0  0  0  0
 51 53  1  0  0  0  0
 52 54  1  0  0  0  0
 53 54  2  0  0  0  0
 55 56  1  0  0  0  0
 55 57  1  0  0  0  0
 55 58  1  0  0  0  0
 55 59  1  0  0  0  0
 55 60  1  0  0  0  0
 55 61  1  0  0  0  0
 49 61  1  0  0  0  0
 43 61  1  0  0  0  0
 39 61  1  0  0  0  0
 33 60  1  0  0  0  0
 29 60  1  0  0  0  0
 23 60  1  0  0  0  0
 18 59  1  0  0  0  0
 12 59  1  0  0  0  0
  4 59  1  0  0  0  0
 56 62  1  0  0  0  0
 62 63  1  0  0  0  0
 63 64  1  0  0  0  0
M  END
> <NMREDATA_VERSION>
1.1

> <NMREDATA_LEVEL>
0

> <NMREDATA_SOLVENT>
toluene-d8

> <NMREDATA_TEMPERATURE>
248

> <NMREDATA_FORMULA>
C57H57P3RhS

> <NMREDATA_SMILES>
CCCS[RhH2](P(c1ccccc1)(c1ccccc1)c1ccccc1)(P(c1ccccc1)(c1ccccc1)c1ccccc1)P(c1ccccc1)(c1ccccc1)c1ccccc1

> <NMREDATA_ASSIGNMENT>
Rh55, -376.00, 55

> <NMREDATA_1D_103Rh>
-376.00, L=Rh55

$$$$

  ACD/LABS03292413302D

 64 72  0  0  0  0  0  0  0  0  1 V2000
   18.0822   -6.8965    0.0000 C    0  0  0  0  0  0  0  0  0  0  0  0
   16.7694   -7.1270    0.0000 C    0  0  0  0  0  0  0  0  0  0  0  0
   18.9333   -7.9164    0.0000 C    0  0  0  0  0  0  0  0  0  0  0  0
   16.3173   -8.3774    0.0000 C    0  0  0  0  0  0  0  0  0  0  0  0
   18.4812   -9.1668    0.0000 C    0  0  0  0  0  0  0  0  0  0  0  0
   17.1687   -9.3973    0.0000 C    0  0  0  0  0  0  0  0  0  0  0  0
   11.0852   -7.9164    0.0000 C    0  0  0  0  0  0  0  0  0  0  0  0
   11.9367   -6.8965    0.0000 C    0  0  0  0  0  0  0  0  0  0  0  0
   11.5377   -9.1668    0.0000 C    0  0  0  0  0  0  0  0  0  0  0  0
   13.2398   -7.1270    0.0000 C    0  0  0  0  0  0  0  0  0  0  0  0
   12.8409   -9.3973    0.0000 C    0  0  0  0  0  0  0  0  0  0  0  0
   13.6924   -8.3774    0.0000 C    0  0  0  0  0  0  0  0  0  0  0  0
   15.0048   -4.6085    0.0000 C    0  0  0  0  0  0  0  0  0  0  0  0
   16.1577   -5.2734    0.0000 C    0  0  0  0  0  0  0  0  0  0  0  0
   13.8519   -5.2734    0.0000 C    0  0  0  0  0  0  0  0  0  0  0  0
   16.1577   -6.6039    0.0000 C    0  0  0  0  0  0  0  0  0  0  0  0
   13.8519   -6.6039    0.0000 C    0  0  0  0  0  0  0  0  0  0  0  0
   15.0048   -7.2688    0.0000 C    0  0  0  0  0  0  0  0  0  0  0  0
    7.0588  -15.1705    0.0000 C    0  0  0  0  0  0  0  0  0  0  0  0
    6.0393  -14.3102    0.0000 C    0  0  0  0  0  0  0  0  0  0  0  0
    8.3096  -14.7091    0.0000 C    0  0  0  0  0  0  0  0  0  0  0  0
    6.2609  -13.0066    0.0000 C    0  0  0  0  0  0  0  0  0  0  0  0
    8.5312  -13.3967    0.0000 C    0  0  0  0  0  0  0  0  0  0  0  0
    7.5113  -12.5452    0.0000 C    0  0  0  0  0  0  0  0  0  0  0  0
    7.5557  -10.2221    0.0000 C    0  0  0  0  0  0  0  0  0  0  0  0
    8.4160   -9.2022    0.0000 C    0  0  0  0  0  0  0  0  0  0  0  0
    8.0166  -11.4633    0.0000 C    0  0  0  0  0  0  0  0  0  0  0  0
    9.7196   -9.4327    0.0000 C    0  0  0  0  0  0  0  0  0  0  0  0
    9.3295  -11.6938    0.0000 C    0  0  0  0  0  0  0  0  0  0  0  0
   10.1805  -10.6831    0.0000 C    0  0  0  0  0  0  0  0  0  0  0  0
   11.5555  -14.4166    0.0000 C    0  0  0  0  0  0  0  0  0  0  0  0
   12.0076  -15.6670    0.0000 C    0  0  0  0  0  0  0  0  0  0  0  0
   10.2426  -14.1949    0.0000 C    0  0  0  0  0  0  0  0  0  0  0  0
   11.1561  -16.6869    0.0000 C    0  0  0  0  0  0  0  0  0  0  0  0
    9.3915  -15.2148    0.0000 C    0  0  0  0  0  0  0  0  0  0  0  0
    9.8437  -16.4652    0.0000 C    0  0  0  0  0  0  0  0  0  0  0  0
   15.7942  -14.9843    0.0000 C    0  0  0  0  0  0  0  0  0  0  0  0
   15.5722  -16.2968    0.0000 C    0  0  0  0  0  0  0  0  0  0  0  0
   14.7743  -14.1329    0.0000 C    0  0  0  0  0  0  0  0  0  0  0  0
   14.3218  -16.7578    0.0000 C    0  0  0  0  0  0  0  0  0  0  0  0
   13.5235  -14.5939    0.0000 C    0  0  0  0  0  0  0  0  0  0  0  0
   13.3019  -15.8975    0.0000 C    0  0  0  0  0  0  0  0  0  0  0  0
   13.6924  -12.5984    0.0000 C    0  0  0  0  0  0  0  0  0  0  0  0
   13.2398  -11.3480    0.0000 C    0  0  0  0  0  0  0  0  0  0  0  0
   12.8409  -13.6183    0.0000 C    0  0  0  0  0  0  0  0  0  0  0  0
   11.9367  -11.1175    0.0000 C    0  0  0  0  0  0  0  0  0  0  0  0
   11.5377  -13.3878    0.0000 C    0  0  0  0  0  0  0  0  0  0  0  0
   11.0852  -12.1374    0.0000 C    0  0  0  0  0  0  0  0  0  0  0  0
   16.3173  -13.0509    0.0000 C    0  0  0  0  0  0  0  0  0  0  0  0
   16.7694  -14.3013    0.0000 C    0  0  0  0  0  0  0  0  0  0  0  0
   17.1687  -12.0310    0.0000 C    0  0  0  0  0  0  0  0  0  0  0  0
   18.0822  -14.5318    0.0000 C    0  0  0  0  0  0  0  0  0  0  0  0
   18.4812  -12.2615    0.0000 C    0  0  0  0  0  0  0  0  0  0  0  0
   18.9333  -13.5119    0.0000 C    0  0  0  0  0  0  0  0  0  0  0  0
   15.0048   -9.9296    0.0000 Rh   0  0  0  0  0  0  0  0  0  0  0  0
   16.1577   -9.2643    0.0000 S    0  0  0  0  0  0  0  0  0  0  0  0
   13.8519   -9.2643    0.0000 H    0  0  0  0  0  0  0  0  0  0  0  0
   16.1577  -10.5945    0.0000 H    0  0  0  0  0  0  0  0  0  0  0  0
   15.0048   -8.5994    0.0000 P    0  0  0  0  0  0  0  0  0  0  0  0
    9.7816  -12.9446    0.0000 P    0  0  0  0  0  0  0  0  0  0  0  0
   15.0048  -12.8200    0.0000 P    0  0  0  0  0  0  0  0  0  0  0  0
   17.3094   -9.9295    0.0000 C    0  0  0  0  0  0  0  0  0  0  0  0
   18.4614   -9.2647    0.0000 C    0  0  0  0  0  0  0  0  0  0  0  0
   17.3091  -11.2595    0.0000 C    0  0  0  0  0  0  0  0  0  0  0  0
  1  2  1  0  0  0  0
  1  3  2  0  0  0  0
  2  4  2  0  0  0  0
  3  5  1  0  0  0  0
  4  6  1  0  0  0  0
  5  6  2  0  0  0  0
  7  8  1  0  0  0  0
  7  9  2  0  0  0  0
  8 10  2  0  0  0  0
  9 11  1  0  0  0  0
 10 12  1  0  0  0  0
 11 12  2  0  0  0  0
 13 14  1  0  0  0  0
 13 15  2  0  0  0  0
 14 16  2  0  0  0  0
 15 17  1  0  0  0  0
 16 18  1  0  0  0  0
 17 18  2  0  0  0  0
 19 20  1  0  0  0  0
 19 21  2  0  0  0  0
 20 22  2  0  0  0  0
 21 23  1  0  0  0  0
 22 24  1  0  0  0  0
 23 24  2  0  0  0  0
 25 26  1  0  0  0  0
 25 27  2  0  0  0  0
 26 28  2  0  0  0  0
 27 29  1  0  0  0  0
 28 30  1  0  0  0  0
 29 30  2  0  0  0  0
 31 32  1  0  0  0  0
 31 33  2  0  0  0  0
 32 34  2  0  0  0  0
 33 35  1  0  0  0  0
 34 36  1  0  0  0  0
 35 36  2  0  0  0  0
 37 38  1  0  0  0  0
 37 39  2  0  0  0  0
 38 40  2  0  0  0  0
 39 41  1  0  0  0  0
 40 42  1  0  0  0  0
 41 42  2  0  0  0  0
 43 44  1  0  0  0  0
 43 45  2  0  0  0  0
 44 46  2  0  0  0  0
 45 47  1  0  0  0  0
 46 48  1  0  0  0  0
 47 48  2  0  0  0  0
 49 50  1  0  0  0  0
 49 51  2  0  0  0  0
 50 52  2  0  0  0  0
 51 53  1  0  0  0  0
 52 54  1  0  0  0  0
 53 54  2  0  0  0  0
 55 56  1  0  0  0  0
 55 57  1  0  0  0  0
 55 58  1  0  0  0  0
 55 59  1  0  0  0  0
 55 60  1  0  0  0  0
 55 61  1  0  0  0  0
 49 61  1  0  0  0  0
 43 61  1  0  0  0  0
 39 61  1  0  0  0  0
 33 60  1  0  0  0  0
 29 60  1  0  0  0  0
 23 60  1  0  0  0  0
 18 59  1  0  0  0  0
 12 59  1  0  0  0  0
  4 59  1  0  0  0  0
 62 63  1  0  0  0  0
 62 64  1  0  0  0  0
 56 62  1  0  0  0  0
M  END
> <NMREDATA_VERSION>
1.1

> <NMREDATA_LEVEL>
0

> <NMREDATA_SOLVENT>
toluene-d8

> <NMREDATA_TEMPERATURE>
248

> <NMREDATA_FORMULA>
C57H57P3RhS

> <NMREDATA_SMILES>
CC(S[RhH2](P(c1ccccc1)(c1ccccc1)c1ccccc1)(P(c1ccccc1)(c1ccccc1)c1ccccc1)P(c1ccccc1)(c1ccccc1)c1ccccc1)C

> <NMREDATA_ASSIGNMENT>
Rh55, -328.00, 55

> <NMREDATA_1D_103Rh>
-328.00, L=Rh55

$$$$

  ACD/LABS03292413312D

 67 76  0  0  0  0  0  0  0  0  1 V2000
   18.0822   -6.8965    0.0000 C    0  0  0  0  0  0  0  0  0  0  0  0
   16.7694   -7.1270    0.0000 C    0  0  0  0  0  0  0  0  0  0  0  0
   18.9333   -7.9164    0.0000 C    0  0  0  0  0  0  0  0  0  0  0  0
   16.3173   -8.3774    0.0000 C    0  0  0  0  0  0  0  0  0  0  0  0
   18.4812   -9.1668    0.0000 C    0  0  0  0  0  0  0  0  0  0  0  0
   17.1687   -9.3973    0.0000 C    0  0  0  0  0  0  0  0  0  0  0  0
   11.0852   -7.9164    0.0000 C    0  0  0  0  0  0  0  0  0  0  0  0
   11.9367   -6.8965    0.0000 C    0  0  0  0  0  0  0  0  0  0  0  0
   11.5377   -9.1668    0.0000 C    0  0  0  0  0  0  0  0  0  0  0  0
   13.2398   -7.1270    0.0000 C    0  0  0  0  0  0  0  0  0  0  0  0
   12.8409   -9.3973    0.0000 C    0  0  0  0  0  0  0  0  0  0  0  0
   13.6924   -8.3774    0.0000 C    0  0  0  0  0  0  0  0  0  0  0  0
   15.0048   -4.6085    0.0000 C    0  0  0  0  0  0  0  0  0  0  0  0
   16.1577   -5.2734    0.0000 C    0  0  0  0  0  0  0  0  0  0  0  0
   13.8519   -5.2734    0.0000 C    0  0  0  0  0  0  0  0  0  0  0  0
   16.1577   -6.6039    0.0000 C    0  0  0  0  0  0  0  0  0  0  0  0
   13.8519   -6.6039    0.0000 C    0  0  0  0  0  0  0  0  0  0  0  0
   15.0048   -7.2688    0.0000 C    0  0  0  0  0  0  0  0  0  0  0  0
    7.0588  -15.1705    0.0000 C    0  0  0  0  0  0  0  0  0  0  0  0
    6.0393  -14.3102    0.0000 C    0  0  0  0  0  0  0  0  0  0  0  0
    8.3096  -14.7091    0.0000 C    0  0  0  0  0  0  0  0  0  0  0  0
    6.2609  -13.0066    0.0000 C    0  0  0  0  0  0  0  0  0  0  0  0
    8.5312  -13.3967    0.0000 C    0  0  0  0  0  0  0  0  0  0  0  0
    7.5113  -12.5452    0.0000 C    0  0  0  0  0  0  0  0  0  0  0  0
    7.5557  -10.2221    0.0000 C    0  0  0  0  0  0  0  0  0  0  0  0
    8.4160   -9.2022    0.0000 C    0  0  0  0  0  0  0  0  0  0  0  0
    8.0166  -11.4633    0.0000 C    0  0  0  0  0  0  0  0  0  0  0  0
    9.7196   -9.4327    0.0000 C    0  0  0  0  0  0  0  0  0  0  0  0
    9.3295  -11.6938    0.0000 C    0  0  0  0  0  0  0  0  0  0  0  0
   10.1805  -10.6831    0.0000 C    0  0  0  0  0  0  0  0  0  0  0  0
   11.5555  -14.4166    0.0000 C    0  0  0  0  0  0  0  0  0  0  0  0
   12.0076  -15.6670    0.0000 C    0  0  0  0  0  0  0  0  0  0  0  0
   10.2426  -14.1949    0.0000 C    0  0  0  0  0  0  0  0  0  0  0  0
   11.1561  -16.6869    0.0000 C    0  0  0  0  0  0  0  0  0  0  0  0
    9.3915  -15.2148    0.0000 C    0  0  0  0  0  0  0  0  0  0  0  0
    9.8437  -16.4652    0.0000 C    0  0  0  0  0  0  0  0  0  0  0  0
   15.7942  -14.9843    0.0000 C    0  0  0  0  0  0  0  0  0  0  0  0
   15.5722  -16.2968    0.0000 C    0  0  0  0  0  0  0  0  0  0  0  0
   14.7743  -14.1329    0.0000 C    0  0  0  0  0  0  0  0  0  0  0  0
   14.3218  -16.7578    0.0000 C    0  0  0  0  0  0  0  0  0  0  0  0
   13.5235  -14.5939    0.0000 C    0  0  0  0  0  0  0  0  0  0  0  0
   13.3019  -15.8975    0.0000 C    0  0  0  0  0  0  0  0  0  0  0  0
   13.6924  -12.5984    0.0000 C    0  0  0  0  0  0  0  0  0  0  0  0
   13.2398  -11.3480    0.0000 C    0  0  0  0  0  0  0  0  0  0  0  0
   12.8409  -13.6183    0.0000 C    0  0  0  0  0  0  0  0  0  0  0  0
   11.9367  -11.1175    0.0000 C    0  0  0  0  0  0  0  0  0  0  0  0
   11.5377  -13.3878    0.0000 C    0  0  0  0  0  0  0  0  0  0  0  0
   11.0852  -12.1374    0.0000 C    0  0  0  0  0  0  0  0  0  0  0  0
   16.3173  -13.0509    0.0000 C    0  0  0  0  0  0  0  0  0  0  0  0
   16.7694  -14.3013    0.0000 C    0  0  0  0  0  0  0  0  0  0  0  0
   17.1687  -12.0310    0.0000 C    0  0  0  0  0  0  0  0  0  0  0  0
   18.0822  -14.5318    0.0000 C    0  0  0  0  0  0  0  0  0  0  0  0
   18.4812  -12.2615    0.0000 C    0  0  0  0  0  0  0  0  0  0  0  0
   18.9333  -13.5119    0.0000 C    0  0  0  0  0  0  0  0  0  0  0  0
   15.0048   -9.9296    0.0000 Rh   0  0  0  0  0  0  0  0  0  0  0  0
   16.1577   -9.2643    0.0000 S    0  0  0  0  0  0  0  0  0  0  0  0
   13.8519   -9.2643    0.0000 H    0  0  0  0  0  0  0  0  0  0  0  0
   16.1577  -10.5945    0.0000 H    0  0  0  0  0  0  0  0  0  0  0  0
   15.0048   -8.5994    0.0000 P    0  0  0  0  0  0  0  0  0  0  0  0
    9.7816  -12.9446    0.0000 P    0  0  0  0  0  0  0  0  0  0  0  0
   15.0048  -12.8200    0.0000 P    0  0  0  0  0  0  0  0  0  0  0  0
   17.3094   -9.9295    0.0000 C    0  0  0  0  0  0  0  0  0  0  0  0
   18.4613   -9.2648    0.0000 C    0  0  0  0  0  0  0  0  0  0  0  0
   17.3091  -11.2596    0.0000 C    0  0  0  0  0  0  0  0  0  0  0  0
   19.6130   -9.9301    0.0000 C    0  0  0  0  0  0  0  0  0  0  0  0
   18.4608  -11.9249    0.0000 C    0  0  0  0  0  0  0  0  0  0  0  0
   19.6127  -11.2601    0.0000 C    0  0  0  0  0  0  0  0  0  0  0  0
  1  2  1  0  0  0  0
  1  3  2  0  0  0  0
  2  4  2  0  0  0  0
  3  5  1  0  0  0  0
  4  6  1  0  0  0  0
  5  6  2  0  0  0  0
  7  8  1  0  0  0  0
  7  9  2  0  0  0  0
  8 10  2  0  0  0  0
  9 11  1  0  0  0  0
 10 12  1  0  0  0  0
 11 12  2  0  0  0  0
 13 14  1  0  0  0  0
 13 15  2  0  0  0  0
 14 16  2  0  0  0  0
 15 17  1  0  0  0  0
 16 18  1  0  0  0  0
 17 18  2  0  0  0  0
 19 20  1  0  0  0  0
 19 21  2  0  0  0  0
 20 22  2  0  0  0  0
 21 23  1  0  0  0  0
 22 24  1  0  0  0  0
 23 24  2  0  0  0  0
 25 26  1  0  0  0  0
 25 27  2  0  0  0  0
 26 28  2  0  0  0  0
 27 29  1  0  0  0  0
 28 30  1  0  0  0  0
 29 30  2  0  0  0  0
 31 32  1  0  0  0  0
 31 33  2  0  0  0  0
 32 34  2  0  0  0  0
 33 35  1  0  0  0  0
 34 36  1  0  0  0  0
 35 36  2  0  0  0  0
 37 38  1  0  0  0  0
 37 39  2  0  0  0  0
 38 40  2  0  0  0  0
 39 41  1  0  0  0  0
 40 42  1  0  0  0  0
 41 42  2  0  0  0  0
 43 44  1  0  0  0  0
 43 45  2  0  0  0  0
 44 46  2  0  0  0  0
 45 47  1  0  0  0  0
 46 48  1  0  0  0  0
 47 48  2  0  0  0  0
 49 50  1  0  0  0  0
 49 51  2  0  0  0  0
 50 52  2  0  0  0  0
 51 53  1  0  0  0  0
 52 54  1  0  0  0  0
 53 54  2  0  0  0  0
 55 56  1  0  0  0  0
 55 57  1  0  0  0  0
 55 58  1  0  0  0  0
 55 59  1  0  0  0  0
 55 60  1  0  0  0  0
 55 61  1  0  0  0  0
 49 61  1  0  0  0  0
 43 61  1  0  0  0  0
 39 61  1  0  0  0  0
 33 60  1  0  0  0  0
 29 60  1  0  0  0  0
 23 60  1  0  0  0  0
 18 59  1  0  0  0  0
 12 59  1  0  0  0  0
  4 59  1  0  0  0  0
 62 63  1  0  0  0  0
 62 64  1  0  0  0  0
 63 65  1  0  0  0  0
 64 66  1  0  0  0  0
 65 67  1  0  0  0  0
 66 67  1  0  0  0  0
 56 62  1  0  0  0  0
M  END
> <NMREDATA_VERSION>
1.1

> <NMREDATA_LEVEL>
0

> <NMREDATA_SOLVENT>
toluene-d8

> <NMREDATA_TEMPERATURE>
248

> <NMREDATA_FORMULA>
C60H61P3RhS

> <NMREDATA_SMILES>
C1CCC(CC1)S[RhH2](P(c1ccccc1)(c1ccccc1)c1ccccc1)(P(c1ccccc1)(c1ccccc1)c1ccccc1)P(c1ccccc1)(c1ccccc1)c1ccccc1

> <NMREDATA_ASSIGNMENT>
Rh55, -340.00, 55

> <NMREDATA_1D_103Rh>
-340.00, L=Rh55

$$$$

  ACD/LABS03292413312D

 68 77  0  0  0  0  0  0  0  0  1 V2000
   18.0822   -6.8965    0.0000 C    0  0  0  0  0  0  0  0  0  0  0  0
   16.7694   -7.1270    0.0000 C    0  0  0  0  0  0  0  0  0  0  0  0
   18.9333   -7.9164    0.0000 C    0  0  0  0  0  0  0  0  0  0  0  0
   16.3173   -8.3774    0.0000 C    0  0  0  0  0  0  0  0  0  0  0  0
   18.4812   -9.1668    0.0000 C    0  0  0  0  0  0  0  0  0  0  0  0
   17.1687   -9.3973    0.0000 C    0  0  0  0  0  0  0  0  0  0  0  0
   11.0852   -7.9164    0.0000 C    0  0  0  0  0  0  0  0  0  0  0  0
   11.9367   -6.8965    0.0000 C    0  0  0  0  0  0  0  0  0  0  0  0
   11.5377   -9.1668    0.0000 C    0  0  0  0  0  0  0  0  0  0  0  0
   13.2398   -7.1270    0.0000 C    0  0  0  0  0  0  0  0  0  0  0  0
   12.8409   -9.3973    0.0000 C    0  0  0  0  0  0  0  0  0  0  0  0
   13.6924   -8.3774    0.0000 C    0  0  0  0  0  0  0  0  0  0  0  0
   15.0048   -4.6085    0.0000 C    0  0  0  0  0  0  0  0  0  0  0  0
   16.1577   -5.2734    0.0000 C    0  0  0  0  0  0  0  0  0  0  0  0
   13.8519   -5.2734    0.0000 C    0  0  0  0  0  0  0  0  0  0  0  0
   16.1577   -6.6039    0.0000 C    0  0  0  0  0  0  0  0  0  0  0  0
   13.8519   -6.6039    0.0000 C    0  0  0  0  0  0  0  0  0  0  0  0
   15.0048   -7.2688    0.0000 C    0  0  0  0  0  0  0  0  0  0  0  0
    7.0588  -15.1705    0.0000 C    0  0  0  0  0  0  0  0  0  0  0  0
    6.0393  -14.3102    0.0000 C    0  0  0  0  0  0  0  0  0  0  0  0
    8.3096  -14.7091    0.0000 C    0  0  0  0  0  0  0  0  0  0  0  0
    6.2609  -13.0066    0.0000 C    0  0  0  0  0  0  0  0  0  0  0  0
    8.5312  -13.3967    0.0000 C    0  0  0  0  0  0  0  0  0  0  0  0
    7.5113  -12.5452    0.0000 C    0  0  0  0  0  0  0  0  0  0  0  0
    7.5557  -10.2221    0.0000 C    0  0  0  0  0  0  0  0  0  0  0  0
    8.4160   -9.2022    0.0000 C    0  0  0  0  0  0  0  0  0  0  0  0
    8.0166  -11.4633    0.0000 C    0  0  0  0  0  0  0  0  0  0  0  0
    9.7196   -9.4327    0.0000 C    0  0  0  0  0  0  0  0  0  0  0  0
    9.3295  -11.6938    0.0000 C    0  0  0  0  0  0  0  0  0  0  0  0
   10.1805  -10.6831    0.0000 C    0  0  0  0  0  0  0  0  0  0  0  0
   11.5555  -14.4166    0.0000 C    0  0  0  0  0  0  0  0  0  0  0  0
   12.0076  -15.6670    0.0000 C    0  0  0  0  0  0  0  0  0  0  0  0
   10.2426  -14.1949    0.0000 C    0  0  0  0  0  0  0  0  0  0  0  0
   11.1561  -16.6869    0.0000 C    0  0  0  0  0  0  0  0  0  0  0  0
    9.3915  -15.2148    0.0000 C    0  0  0  0  0  0  0  0  0  0  0  0
    9.8437  -16.4652    0.0000 C    0  0  0  0  0  0  0  0  0  0  0  0
   15.7942  -14.9843    0.0000 C    0  0  0  0  0  0  0  0  0  0  0  0
   15.5722  -16.2968    0.0000 C    0  0  0  0  0  0  0  0  0  0  0  0
   14.7743  -14.1329    0.0000 C    0  0  0  0  0  0  0  0  0  0  0  0
   14.3218  -16.7578    0.0000 C    0  0  0  0  0  0  0  0  0  0  0  0
   13.5235  -14.5939    0.0000 C    0  0  0  0  0  0  0  0  0  0  0  0
   13.3019  -15.8975    0.0000 C    0  0  0  0  0  0  0  0  0  0  0  0
   13.6924  -12.5984    0.0000 C    0  0  0  0  0  0  0  0  0  0  0  0
   13.2398  -11.3480    0.0000 C    0  0  0  0  0  0  0  0  0  0  0  0
   12.8409  -13.6183    0.0000 C    0  0  0  0  0  0  0  0  0  0  0  0
   11.9367  -11.1175    0.0000 C    0  0  0  0  0  0  0  0  0  0  0  0
   11.5377  -13.3878    0.0000 C    0  0  0  0  0  0  0  0  0  0  0  0
   11.0852  -12.1374    0.0000 C    0  0  0  0  0  0  0  0  0  0  0  0
   16.3173  -13.0509    0.0000 C    0  0  0  0  0  0  0  0  0  0  0  0
   16.7694  -14.3013    0.0000 C    0  0  0  0  0  0  0  0  0  0  0  0
   17.1687  -12.0310    0.0000 C    0  0  0  0  0  0  0  0  0  0  0  0
   18.0822  -14.5318    0.0000 C    0  0  0  0  0  0  0  0  0  0  0  0
   18.4812  -12.2615    0.0000 C    0  0  0  0  0  0  0  0  0  0  0  0
   18.9333  -13.5119    0.0000 C    0  0  0  0  0  0  0  0  0  0  0  0
   15.0048   -9.9296    0.0000 Rh   0  0  0  0  0  0  0  0  0  0  0  0
   16.1577   -9.2643    0.0000 S    0  0  0  0  0  0  0  0  0  0  0  0
   13.8519   -9.2643    0.0000 H    0  0  0  0  0  0  0  0  0  0  0  0
   16.1577  -10.5945    0.0000 H    0  0  0  0  0  0  0  0  0  0  0  0
   15.0048   -8.5994    0.0000 P    0  0  0  0  0  0  0  0  0  0  0  0
    9.7816  -12.9446    0.0000 P    0  0  0  0  0  0  0  0  0  0  0  0
   15.0048  -12.8200    0.0000 P    0  0  0  0  0  0  0  0  0  0  0  0
   18.5719  -10.2394    0.0000 C    0  0  0  0  0  0  0  0  0  0  0  0
   19.6199   -9.4204    0.0000 C    0  0  0  0  0  0  0  0  0  0  0  0
   19.4347   -8.1034    0.0000 C    0  0  0  0  0  0  0  0  0  0  0  0
   20.8532   -9.9185    0.0000 C    0  0  0  0  0  0  0  0  0  0  0  0
   20.4827   -7.2845    0.0000 C    0  0  0  0  0  0  0  0  0  0  0  0
   21.9011   -9.0996    0.0000 C    0  0  0  0  0  0  0  0  0  0  0  0
   21.7159   -7.7826    0.0000 C    0  0  0  0  0  0  0  0  0  0  0  0
  1  2  1  0  0  0  0
  1  3  2  0  0  0  0
  2  4  2  0  0  0  0
  3  5  1  0  0  0  0
  4  6  1  0  0  0  0
  5  6  2  0  0  0  0
  7  8  1  0  0  0  0
  7  9  2  0  0  0  0
  8 10  2  0  0  0  0
  9 11  1  0  0  0  0
 10 12  1  0  0  0  0
 11 12  2  0  0  0  0
 13 14  1  0  0  0  0
 13 15  2  0  0  0  0
 14 16  2  0  0  0  0
 15 17  1  0  0  0  0
 16 18  1  0  0  0  0
 17 18  2  0  0  0  0
 19 20  1  0  0  0  0
 19 21  2  0  0  0  0
 20 22  2  0  0  0  0
 21 23  1  0  0  0  0
 22 24  1  0  0  0  0
 23 24  2  0  0  0  0
 25 26  1  0  0  0  0
 25 27  2  0  0  0  0
 26 28  2  0  0  0  0
 27 29  1  0  0  0  0
 28 30  1  0  0  0  0
 29 30  2  0  0  0  0
 31 32  1  0  0  0  0
 31 33  2  0  0  0  0
 32 34  2  0  0  0  0
 33 35  1  0  0  0  0
 34 36  1  0  0  0  0
 35 36  2  0  0  0  0
 37 38  1  0  0  0  0
 37 39  2  0  0  0  0
 38 40  2  0  0  0  0
 39 41  1  0  0  0  0
 40 42  1  0  0  0  0
 41 42  2  0  0  0  0
 43 44  1  0  0  0  0
 43 45  2  0  0  0  0
 44 46  2  0  0  0  0
 45 47  1  0  0  0  0
 46 48  1  0  0  0  0
 47 48  2  0  0  0  0
 49 50  1  0  0  0  0
 49 51  2  0  0  0  0
 50 52  2  0  0  0  0
 51 53  1  0  0  0  0
 52 54  1  0  0  0  0
 53 54  2  0  0  0  0
 55 56  1  0  0  0  0
 55 57  1  0  0  0  0
 55 58  1  0  0  0  0
 55 59  1  0  0  0  0
 55 60  1  0  0  0  0
 55 61  1  0  0  0  0
 49 61  1  0  0  0  0
 43 61  1  0  0  0  0
 39 61  1  0  0  0  0
 33 60  1  0  0  0  0
 29 60  1  0  0  0  0
 23 60  1  0  0  0  0
 18 59  1  0  0  0  0
 12 59  1  0  0  0  0
  4 59  1  0  0  0  0
 56 62  1  0  0  0  0
 63 64  1  0  0  0  0
 63 65  2  0  0  0  0
 64 66  2  0  0  0  0
 65 67  1  0  0  0  0
 66 68  1  0  0  0  0
 67 68  2  0  0  0  0
 62 63  1  0  0  0  0
M  END
> <NMREDATA_VERSION>
1.1

> <NMREDATA_LEVEL>
0

> <NMREDATA_SOLVENT>
toluene-d8

> <NMREDATA_TEMPERATURE>
248

> <NMREDATA_FORMULA>
C61H57P3RhS

> <NMREDATA_SMILES>
c1ccc(cc1)CS[RhH2](P(c1ccccc1)(c1ccccc1)c1ccccc1)(P(c1ccccc1)(c1ccccc1)c1ccccc1)P(c1ccccc1)(c1ccccc1)c1ccccc1

> <NMREDATA_ASSIGNMENT>
Rh55, -358.00, 55

> <NMREDATA_1D_103Rh>
-358.00, L=Rh55

$$$$

  ACD/LABS03292413312D

 67 76  0  0  0  0  0  0  0  0  1 V2000
   18.0822   -6.8965    0.0000 C    0  0  0  0  0  0  0  0  0  0  0  0
   16.7694   -7.1270    0.0000 C    0  0  0  0  0  0  0  0  0  0  0  0
   18.9333   -7.9164    0.0000 C    0  0  0  0  0  0  0  0  0  0  0  0
   16.3173   -8.3774    0.0000 C    0  0  0  0  0  0  0  0  0  0  0  0
   18.4812   -9.1668    0.0000 C    0  0  0  0  0  0  0  0  0  0  0  0
   17.1687   -9.3973    0.0000 C    0  0  0  0  0  0  0  0  0  0  0  0
   11.0852   -7.9164    0.0000 C    0  0  0  0  0  0  0  0  0  0  0  0
   11.9367   -6.8965    0.0000 C    0  0  0  0  0  0  0  0  0  0  0  0
   11.5377   -9.1668    0.0000 C    0  0  0  0  0  0  0  0  0  0  0  0
   13.2398   -7.1270    0.0000 C    0  0  0  0  0  0  0  0  0  0  0  0
   12.8409   -9.3973    0.0000 C    0  0  0  0  0  0  0  0  0  0  0  0
   13.6924   -8.3774    0.0000 C    0  0  0  0  0  0  0  0  0  0  0  0
   15.0048   -4.6085    0.0000 C    0  0  0  0  0  0  0  0  0  0  0  0
   16.1577   -5.2734    0.0000 C    0  0  0  0  0  0  0  0  0  0  0  0
   13.8519   -5.2734    0.0000 C    0  0  0  0  0  0  0  0  0  0  0  0
   16.1577   -6.6039    0.0000 C    0  0  0  0  0  0  0  0  0  0  0  0
   13.8519   -6.6039    0.0000 C    0  0  0  0  0  0  0  0  0  0  0  0
   15.0048   -7.2688    0.0000 C    0  0  0  0  0  0  0  0  0  0  0  0
    7.0588  -15.1705    0.0000 C    0  0  0  0  0  0  0  0  0  0  0  0
    6.0393  -14.3102    0.0000 C    0  0  0  0  0  0  0  0  0  0  0  0
    8.3096  -14.7091    0.0000 C    0  0  0  0  0  0  0  0  0  0  0  0
    6.2609  -13.0066    0.0000 C    0  0  0  0  0  0  0  0  0  0  0  0
    8.5312  -13.3967    0.0000 C    0  0  0  0  0  0  0  0  0  0  0  0
    7.5113  -12.5452    0.0000 C    0  0  0  0  0  0  0  0  0  0  0  0
    7.5557  -10.2221    0.0000 C    0  0  0  0  0  0  0  0  0  0  0  0
    8.4160   -9.2022    0.0000 C    0  0  0  0  0  0  0  0  0  0  0  0
    8.0166  -11.4633    0.0000 C    0  0  0  0  0  0  0  0  0  0  0  0
    9.7196   -9.4327    0.0000 C    0  0  0  0  0  0  0  0  0  0  0  0
    9.3295  -11.6938    0.0000 C    0  0  0  0  0  0  0  0  0  0  0  0
   10.1805  -10.6831    0.0000 C    0  0  0  0  0  0  0  0  0  0  0  0
   11.5555  -14.4166    0.0000 C    0  0  0  0  0  0  0  0  0  0  0  0
   12.0076  -15.6670    0.0000 C    0  0  0  0  0  0  0  0  0  0  0  0
   10.2426  -14.1949    0.0000 C    0  0  0  0  0  0  0  0  0  0  0  0
   11.1561  -16.6869    0.0000 C    0  0  0  0  0  0  0  0  0  0  0  0
    9.3915  -15.2148    0.0000 C    0  0  0  0  0  0  0  0  0  0  0  0
    9.8437  -16.4652    0.0000 C    0  0  0  0  0  0  0  0  0  0  0  0
   15.7942  -14.9843    0.0000 C    0  0  0  0  0  0  0  0  0  0  0  0
   15.5722  -16.2968    0.0000 C    0  0  0  0  0  0  0  0  0  0  0  0
   14.7743  -14.1329    0.0000 C    0  0  0  0  0  0  0  0  0  0  0  0
   14.3218  -16.7578    0.0000 C    0  0  0  0  0  0  0  0  0  0  0  0
   13.5235  -14.5939    0.0000 C    0  0  0  0  0  0  0  0  0  0  0  0
   13.3019  -15.8975    0.0000 C    0  0  0  0  0  0  0  0  0  0  0  0
   13.6924  -12.5984    0.0000 C    0  0  0  0  0  0  0  0  0  0  0  0
   13.2398  -11.3480    0.0000 C    0  0  0  0  0  0  0  0  0  0  0  0
   12.8409  -13.6183    0.0000 C    0  0  0  0  0  0  0  0  0  0  0  0
   11.9367  -11.1175    0.0000 C    0  0  0  0  0  0  0  0  0  0  0  0
   11.5377  -13.3878    0.0000 C    0  0  0  0  0  0  0  0  0  0  0  0
   11.0852  -12.1374    0.0000 C    0  0  0  0  0  0  0  0  0  0  0  0
   16.3173  -13.0509    0.0000 C    0  0  0  0  0  0  0  0  0  0  0  0
   16.7694  -14.3013    0.0000 C    0  0  0  0  0  0  0  0  0  0  0  0
   17.1687  -12.0310    0.0000 C    0  0  0  0  0  0  0  0  0  0  0  0
   18.0822  -14.5318    0.0000 C    0  0  0  0  0  0  0  0  0  0  0  0
   18.4812  -12.2615    0.0000 C    0  0  0  0  0  0  0  0  0  0  0  0
   18.9333  -13.5119    0.0000 C    0  0  0  0  0  0  0  0  0  0  0  0
   15.0048   -9.9296    0.0000 Rh   0  0  0  0  0  0  0  0  0  0  0  0
   16.1577   -9.2643    0.0000 S    0  0  0  0  0  0  0  0  0  0  0  0
   13.8519   -9.2643    0.0000 H    0  0  0  0  0  0  0  0  0  0  0  0
   16.1577  -10.5945    0.0000 H    0  0  0  0  0  0  0  0  0  0  0  0
   15.0048   -8.5994    0.0000 P    0  0  0  0  0  0  0  0  0  0  0  0
    9.7816  -12.9446    0.0000 P    0  0  0  0  0  0  0  0  0  0  0  0
   15.0048  -12.8200    0.0000 P    0  0  0  0  0  0  0  0  0  0  0  0
   17.3094   -9.9295    0.0000 C    0  0  0  0  0  0  0  0  0  0  0  0
   18.4613   -9.2648    0.0000 C    0  0  0  0  0  0  0  0  0  0  0  0
   17.3091  -11.2596    0.0000 C    0  0  0  0  0  0  0  0  0  0  0  0
   19.6130   -9.9301    0.0000 C    0  0  0  0  0  0  0  0  0  0  0  0
   18.4608  -11.9249    0.0000 C    0  0  0  0  0  0  0  0  0  0  0  0
   19.6127  -11.2601    0.0000 C    0  0  0  0  0  0  0  0  0  0  0  0
  1  2  1  0  0  0  0
  1  3  2  0  0  0  0
  2  4  2  0  0  0  0
  3  5  1  0  0  0  0
  4  6  1  0  0  0  0
  5  6  2  0  0  0  0
  7  8  1  0  0  0  0
  7  9  2  0  0  0  0
  8 10  2  0  0  0  0
  9 11  1  0  0  0  0
 10 12  1  0  0  0  0
 11 12  2  0  0  0  0
 13 14  1  0  0  0  0
 13 15  2  0  0  0  0
 14 16  2  0  0  0  0
 15 17  1  0  0  0  0
 16 18  1  0  0  0  0
 17 18  2  0  0  0  0
 19 20  1  0  0  0  0
 19 21  2  0  0  0  0
 20 22  2  0  0  0  0
 21 23  1  0  0  0  0
 22 24  1  0  0  0  0
 23 24  2  0  0  0  0
 25 26  1  0  0  0  0
 25 27  2  0  0  0  0
 26 28  2  0  0  0  0
 27 29  1  0  0  0  0
 28 30  1  0  0  0  0
 29 30  2  0  0  0  0
 31 32  1  0  0  0  0
 31 33  2  0  0  0  0
 32 34  2  0  0  0  0
 33 35  1  0  0  0  0
 34 36  1  0  0  0  0
 35 36  2  0  0  0  0
 37 38  1  0  0  0  0
 37 39  2  0  0  0  0
 38 40  2  0  0  0  0
 39 41  1  0  0  0  0
 40 42  1  0  0  0  0
 41 42  2  0  0  0  0
 43 44  1  0  0  0  0
 43 45  2  0  0  0  0
 44 46  2  0  0  0  0
 45 47  1  0  0  0  0
 46 48  1  0  0  0  0
 47 48  2  0  0  0  0
 49 50  1  0  0  0  0
 49 51  2  0  0  0  0
 50 52  2  0  0  0  0
 51 53  1  0  0  0  0
 52 54  1  0  0  0  0
 53 54  2  0  0  0  0
 55 56  1  0  0  0  0
 55 57  1  0  0  0  0
 55 58  1  0  0  0  0
 55 59  1  0  0  0  0
 55 60  1  0  0  0  0
 55 61  1  0  0  0  0
 49 61  1  0  0  0  0
 43 61  1  0  0  0  0
 39 61  1  0  0  0  0
 33 60  1  0  0  0  0
 29 60  1  0  0  0  0
 23 60  1  0  0  0  0
 18 59  1  0  0  0  0
 12 59  1  0  0  0  0
  4 59  1  0  0  0  0
 62 63  1  0  0  0  0
 62 64  2  0  0  0  0
 63 65  2  0  0  0  0
 64 66  1  0  0  0  0
 65 67  1  0  0  0  0
 66 67  2  0  0  0  0
 56 62  1  0  0  0  0
M  END
> <NMREDATA_VERSION>
1.1

> <NMREDATA_LEVEL>
0

> <NMREDATA_SOLVENT>
toluene-d8

> <NMREDATA_TEMPERATURE>
248

> <NMREDATA_FORMULA>
C60H55P3RhS

> <NMREDATA_SMILES>
c1ccc(cc1)S[RhH2](P(c1ccccc1)(c1ccccc1)c1ccccc1)(P(c1ccccc1)(c1ccccc1)c1ccccc1)P(c1ccccc1)(c1ccccc1)c1ccccc1

> <NMREDATA_ASSIGNMENT>
Rh55, -323.00, 55

> <NMREDATA_1D_103Rh>
-323.00, L=Rh55

$$$$

  ACD/LABS03292413322D

 80 91  0  0  0  0  0  0  0  0  1 V2000
   24.0823  -11.0166    0.0000 C    0  0  0  0  0  0  0  0  0  0  0  0
   24.0823  -12.3466    0.0000 C    0  0  0  0  0  0  0  0  0  0  0  0
   22.9304  -10.3516    0.0000 C    0  0  0  0  0  0  0  0  0  0  0  0
   22.9304  -13.0116    0.0000 C    0  0  0  0  0  0  0  0  0  0  0  0
   21.7786  -11.0166    0.0000 C    0  0  0  0  0  0  0  0  0  0  0  0
   21.7786  -12.3466    0.0000 C    0  0  0  0  0  0  0  0  0  0  0  0
   18.0822   -6.8965    0.0000 C    0  0  0  0  0  0  0  0  0  0  0  0
   16.7694   -7.1270    0.0000 C    0  0  0  0  0  0  0  0  0  0  0  0
   18.9333   -7.9164    0.0000 C    0  0  0  0  0  0  0  0  0  0  0  0
   16.3173   -8.3774    0.0000 C    0  0  0  0  0  0  0  0  0  0  0  0
   18.4812   -9.1668    0.0000 C    0  0  0  0  0  0  0  0  0  0  0  0
   17.1687   -9.3973    0.0000 C    0  0  0  0  0  0  0  0  0  0  0  0
   11.0852   -7.9164    0.0000 C    0  0  0  0  0  0  0  0  0  0  0  0
   11.9367   -6.8965    0.0000 C    0  0  0  0  0  0  0  0  0  0  0  0
   11.5377   -9.1668    0.0000 C    0  0  0  0  0  0  0  0  0  0  0  0
   13.2398   -7.1270    0.0000 C    0  0  0  0  0  0  0  0  0  0  0  0
   12.8409   -9.3973    0.0000 C    0  0  0  0  0  0  0  0  0  0  0  0
   13.6924   -8.3774    0.0000 C    0  0  0  0  0  0  0  0  0  0  0  0
   15.0048   -4.6085    0.0000 C    0  0  0  0  0  0  0  0  0  0  0  0
   16.1577   -5.2734    0.0000 C    0  0  0  0  0  0  0  0  0  0  0  0
   13.8519   -5.2734    0.0000 C    0  0  0  0  0  0  0  0  0  0  0  0
   16.1577   -6.6039    0.0000 C    0  0  0  0  0  0  0  0  0  0  0  0
   13.8519   -6.6039    0.0000 C    0  0  0  0  0  0  0  0  0  0  0  0
   15.0048   -7.2688    0.0000 C    0  0  0  0  0  0  0  0  0  0  0  0
    7.0588  -15.1705    0.0000 C    0  0  0  0  0  0  0  0  0  0  0  0
    6.0393  -14.3102    0.0000 C    0  0  0  0  0  0  0  0  0  0  0  0
    8.3096  -14.7091    0.0000 C    0  0  0  0  0  0  0  0  0  0  0  0
    6.2609  -13.0066    0.0000 C    0  0  0  0  0  0  0  0  0  0  0  0
    8.5312  -13.3967    0.0000 C    0  0  0  0  0  0  0  0  0  0  0  0
    7.5113  -12.5452    0.0000 C    0  0  0  0  0  0  0  0  0  0  0  0
    7.5557  -10.2221    0.0000 C    0  0  0  0  0  0  0  0  0  0  0  0
    8.4160   -9.2022    0.0000 C    0  0  0  0  0  0  0  0  0  0  0  0
    8.0166  -11.4633    0.0000 C    0  0  0  0  0  0  0  0  0  0  0  0
    9.7196   -9.4327    0.0000 C    0  0  0  0  0  0  0  0  0  0  0  0
    9.3295  -11.6938    0.0000 C    0  0  0  0  0  0  0  0  0  0  0  0
   10.1805  -10.6831    0.0000 C    0  0  0  0  0  0  0  0  0  0  0  0
   11.5555  -14.4166    0.0000 C    0  0  0  0  0  0  0  0  0  0  0  0
   12.0076  -15.6670    0.0000 C    0  0  0  0  0  0  0  0  0  0  0  0
   10.2426  -14.1949    0.0000 C    0  0  0  0  0  0  0  0  0  0  0  0
   11.1561  -16.6869    0.0000 C    0  0  0  0  0  0  0  0  0  0  0  0
    9.3915  -15.2148    0.0000 C    0  0  0  0  0  0  0  0  0  0  0  0
    9.8437  -16.4652    0.0000 C    0  0  0  0  0  0  0  0  0  0  0  0
   15.7942  -14.9843    0.0000 C    0  0  0  0  0  0  0  0  0  0  0  0
   15.5722  -16.2968    0.0000 C    0  0  0  0  0  0  0  0  0  0  0  0
   14.7743  -14.1329    0.0000 C    0  0  0  0  0  0  0  0  0  0  0  0
   14.3218  -16.7578    0.0000 C    0  0  0  0  0  0  0  0  0  0  0  0
   13.5235  -14.5939    0.0000 C    0  0  0  0  0  0  0  0  0  0  0  0
   13.3019  -15.8975    0.0000 C    0  0  0  0  0  0  0  0  0  0  0  0
   13.6924  -12.5984    0.0000 C    0  0  0  0  0  0  0  0  0  0  0  0
   13.2398  -11.3480    0.0000 C    0  0  0  0  0  0  0  0  0  0  0  0
   12.8409  -13.6183    0.0000 C    0  0  0  0  0  0  0  0  0  0  0  0
   11.9367  -11.1175    0.0000 C    0  0  0  0  0  0  0  0  0  0  0  0
   11.5377  -13.3878    0.0000 C    0  0  0  0  0  0  0  0  0  0  0  0
   11.0852  -12.1374    0.0000 C    0  0  0  0  0  0  0  0  0  0  0  0
   16.3173  -13.0509    0.0000 C    0  0  0  0  0  0  0  0  0  0  0  0
   16.7694  -14.3013    0.0000 C    0  0  0  0  0  0  0  0  0  0  0  0
   17.1687  -12.0310    0.0000 C    0  0  0  0  0  0  0  0  0  0  0  0
   18.0822  -14.5318    0.0000 C    0  0  0  0  0  0  0  0  0  0  0  0
   18.4812  -12.2615    0.0000 C    0  0  0  0  0  0  0  0  0  0  0  0
   18.9333  -13.5119    0.0000 C    0  0  0  0  0  0  0  0  0  0  0  0
   15.0048   -9.9296    0.0000 Rh   0  0  0  0  0  0  0  0  0  0  0  0
   16.1577   -9.2643    0.0000 S    0  0  0  0  0  0  0  0  0  0  0  0
   13.8519   -9.2643    0.0000 H    0  0  0  0  0  0  0  0  0  0  0  0
   16.1577  -10.5945    0.0000 H    0  0  0  0  0  0  0  0  0  0  0  0
   15.0048   -8.5994    0.0000 P    0  0  0  0  0  0  0  0  0  0  0  0
    9.7816  -12.9446    0.0000 P    0  0  0  0  0  0  0  0  0  0  0  0
   15.0048  -12.8200    0.0000 P    0  0  0  0  0  0  0  0  0  0  0  0
   19.5975  -10.5118    0.0000 C    0  0  0  0  0  0  0  0  0  0  0  0
   20.6153   -9.6557    0.0000 C    0  0  0  0  0  0  0  0  0  0  0  0
   20.3829   -8.3462    0.0000 C    0  0  0  0  0  0  0  0  0  0  0  0
   21.8657  -10.1092    0.0000 C    0  0  0  0  0  0  0  0  0  0  0  0
   21.4009   -7.4901    0.0000 C    0  0  0  0  0  0  0  0  0  0  0  0
   22.8836   -9.2531    0.0000 C    0  0  0  0  0  0  0  0  0  0  0  0
   22.6511   -7.9436    0.0000 C    0  0  0  0  0  0  0  0  0  0  0  0
   19.8299  -11.8213    0.0000 C    0  0  0  0  0  0  0  0  0  0  0  0
   21.0802  -12.2748    0.0000 C    0  0  0  0  0  0  0  0  0  0  0  0
   18.8120  -12.6775    0.0000 C    0  0  0  0  0  0  0  0  0  0  0  0
   21.3126  -13.5844    0.0000 C    0  0  0  0  0  0  0  0  0  0  0  0
   19.0445  -13.9870    0.0000 C    0  0  0  0  0  0  0  0  0  0  0  0
   20.2948  -14.4405    0.0000 C    0  0  0  0  0  0  0  0  0  0  0  0
  1  2  1  0  0  0  0
  1  3  2  0  0  0  0
  2  4  2  0  0  0  0
  3  5  1  0  0  0  0
  4  6  1  0  0  0  0
  5  6  2  0  0  0  0
  7  8  1  0  0  0  0
  7  9  2  0  0  0  0
  8 10  2  0  0  0  0
  9 11  1  0  0  0  0
 10 12  1  0  0  0  0
 11 12  2  0  0  0  0
 13 14  1  0  0  0  0
 13 15  2  0  0  0  0
 14 16  2  0  0  0  0
 15 17  1  0  0  0  0
 16 18  1  0  0  0  0
 17 18  2  0  0  0  0
 19 20  1  0  0  0  0
 19 21  2  0  0  0  0
 20 22  2  0  0  0  0
 21 23  1  0  0  0  0
 22 24  1  0  0  0  0
 23 24  2  0  0  0  0
 25 26  1  0  0  0  0
 25 27  2  0  0  0  0
 26 28  2  0  0  0  0
 27 29  1  0  0  0  0
 28 30  1  0  0  0  0
 29 30  2  0  0  0  0
 31 32  1  0  0  0  0
 31 33  2  0  0  0  0
 32 34  2  0  0  0  0
 33 35  1  0  0  0  0
 34 36  1  0  0  0  0
 35 36  2  0  0  0  0
 37 38  1  0  0  0  0
 37 39  2  0  0  0  0
 38 40  2  0  0  0  0
 39 41  1  0  0  0  0
 40 42  1  0  0  0  0
 41 42  2  0  0  0  0
 43 44  1  0  0  0  0
 43 45  2  0  0  0  0
 44 46  2  0  0  0  0
 45 47  1  0  0  0  0
 46 48  1  0  0  0  0
 47 48  2  0  0  0  0
 49 50  1  0  0  0  0
 49 51  2  0  0  0  0
 50 52  2  0  0  0  0
 51 53  1  0  0  0  0
 52 54  1  0  0  0  0
 53 54  2  0  0  0  0
 55 56  1  0  0  0  0
 55 57  2  0  0  0  0
 56 58  2  0  0  0  0
 57 59  1  0  0  0  0
 58 60  1  0  0  0  0
 59 60  2  0  0  0  0
 61 62  1  0  0  0  0
 61 63  1  0  0  0  0
 61 64  1  0  0  0  0
 61 65  1  0  0  0  0
 61 66  1  0  0  0  0
 61 67  1  0  0  0  0
 55 67  1  0  0  0  0
 49 67  1  0  0  0  0
 45 67  1  0  0  0  0
 39 66  1  0  0  0  0
 35 66  1  0  0  0  0
 29 66  1  0  0  0  0
 24 65  1  0  0  0  0
 18 65  1  0  0  0  0
 10 65  1  0  0  0  0
 62 68  1  0  0  0  0
 69 70  1  0  0  0  0
 69 71  2  0  0  0  0
 70 72  2  0  0  0  0
 71 73  1  0  0  0  0
 72 74  1  0  0  0  0
 73 74  2  0  0  0  0
 68 69  1  0  0  0  0
 75 76  1  0  0  0  0
 75 77  2  0  0  0  0
 76 78  2  0  0  0  0
 77 79  1  0  0  0  0
 78 80  1  0  0  0  0
 79 80  2  0  0  0  0
 68 75  1  0  0  0  0
  5 68  1  0  0  0  0
M  END
> <NMREDATA_VERSION>
1.1

> <NMREDATA_LEVEL>
0

> <NMREDATA_SOLVENT>
toluene-d8

> <NMREDATA_TEMPERATURE>
248

> <NMREDATA_FORMULA>
C73H65P3RhS

> <NMREDATA_SMILES>
c1ccc(cc1)C(c1ccccc1)(c1ccccc1)S[RhH2](P(c1ccccc1)(c1ccccc1)c1ccccc1)(P(c1ccccc1)(c1ccccc1)c1ccccc1)P(c1ccccc1)(c1ccccc1)c1ccccc1

> <NMREDATA_ASSIGNMENT>
Rh61, -422.00, 61

> <NMREDATA_1D_103Rh>
-422.00, L=Rh61

$$$$

  ACD/LABS03312417322D

 72 81  0  0  0  0  0  0  0  0  1 V2000
   12.5104   -4.3868    0.0000 C    0  0  0  0  0  0  0  0  0  0  0  0
   12.7453   -5.7002    0.0000 C    0  0  0  0  0  0  0  0  0  0  0  0
   13.5272   -3.5302    0.0000 C    0  0  0  0  0  0  0  0  0  0  0  0
   14.0017   -6.1491    0.0000 C    0  0  0  0  0  0  0  0  0  0  0  0
   14.7790   -3.9870    0.0000 C    0  0  0  0  0  0  0  0  0  0  0  0
   15.0186   -5.2925    0.0000 C    0  0  0  0  0  0  0  0  0  0  0  0
   10.3089   -8.1642    0.0000 C    0  0  0  0  0  0  0  0  0  0  0  0
   11.1655   -9.1810    0.0000 C    0  0  0  0  0  0  0  0  0  0  0  0
   10.7532   -6.9157    0.0000 C    0  0  0  0  0  0  0  0  0  0  0  0
   12.4789   -8.9460    0.0000 C    0  0  0  0  0  0  0  0  0  0  0  0
   12.0667   -6.6807    0.0000 C    0  0  0  0  0  0  0  0  0  0  0  0
   12.9233   -7.6976    0.0000 C    0  0  0  0  0  0  0  0  0  0  0  0
   18.1485   -6.7512    0.0000 C    0  0  0  0  0  0  0  0  0  0  0  0
   17.2998   -5.7390    0.0000 C    0  0  0  0  0  0  0  0  0  0  0  0
   17.7040   -8.0001    0.0000 C    0  0  0  0  0  0  0  0  0  0  0  0
   15.9943   -5.9785    0.0000 C    0  0  0  0  0  0  0  0  0  0  0  0
   16.3909   -8.2353    0.0000 C    0  0  0  0  0  0  0  0  0  0  0  0
   15.5422   -7.2230    0.0000 C    0  0  0  0  0  0  0  0  0  0  0  0
   11.6209  -16.3552    0.0000 C    0  0  0  0  0  0  0  0  0  0  0  0
   12.0781  -17.6024    0.0000 C    0  0  0  0  0  0  0  0  0  0  0  0
   12.4766  -15.3337    0.0000 C    0  0  0  0  0  0  0  0  0  0  0  0
   13.3874  -17.8361    0.0000 C    0  0  0  0  0  0  0  0  0  0  0  0
   13.7859  -15.5673    0.0000 C    0  0  0  0  0  0  0  0  0  0  0  0
   14.2431  -16.8145    0.0000 C    0  0  0  0  0  0  0  0  0  0  0  0
   16.4429  -17.5623    0.0000 C    0  0  0  0  0  0  0  0  0  0  0  0
   17.7022  -17.1015    0.0000 C    0  0  0  0  0  0  0  0  0  0  0  0
   15.4295  -16.7108    0.0000 C    0  0  0  0  0  0  0  0  0  0  0  0
   17.9237  -15.7958    0.0000 C    0  0  0  0  0  0  0  0  0  0  0  0
   15.6554  -15.3975    0.0000 C    0  0  0  0  0  0  0  0  0  0  0  0
   16.9024  -14.9397    0.0000 C    0  0  0  0  0  0  0  0  0  0  0  0
   13.8460  -12.3768    0.0000 C    0  0  0  0  0  0  0  0  0  0  0  0
   12.8286  -11.5331    0.0000 C    0  0  0  0  0  0  0  0  0  0  0  0
   13.6201  -13.6901    0.0000 C    0  0  0  0  0  0  0  0  0  0  0  0
   11.5812  -11.9907    0.0000 C    0  0  0  0  0  0  0  0  0  0  0  0
   12.3737  -14.1477    0.0000 C    0  0  0  0  0  0  0  0  0  0  0  0
   11.3553  -13.3039    0.0000 C    0  0  0  0  0  0  0  0  0  0  0  0
    7.2751  -12.2487    0.0000 C    0  0  0  0  0  0  0  0  0  0  0  0
    5.9442  -12.2484    0.0000 C    0  0  0  0  0  0  0  0  0  0  0  0
    7.9408  -13.4011    0.0000 C    0  0  0  0  0  0  0  0  0  0  0  0
    5.2790  -13.4005    0.0000 C    0  0  0  0  0  0  0  0  0  0  0  0
    7.2756  -14.5533    0.0000 C    0  0  0  0  0  0  0  0  0  0  0  0
    5.9449  -14.5526    0.0000 C    0  0  0  0  0  0  0  0  0  0  0  0
    9.0383  -14.7103    0.0000 C    0  0  0  0  0  0  0  0  0  0  0  0
   10.0640  -15.5589    0.0000 C    0  0  0  0  0  0  0  0  0  0  0  0
    7.7909  -15.1679    0.0000 C    0  0  0  0  0  0  0  0  0  0  0  0
    9.8305  -16.8678    0.0000 C    0  0  0  0  0  0  0  0  0  0  0  0
    7.5618  -16.4693    0.0000 C    0  0  0  0  0  0  0  0  0  0  0  0
    8.5833  -17.3250    0.0000 C    0  0  0  0  0  0  0  0  0  0  0  0
    9.0365  -12.0884    0.0000 C    0  0  0  0  0  0  0  0  0  0  0  0
    7.7970  -11.6286    0.0000 C    0  0  0  0  0  0  0  0  0  0  0  0
   10.0611  -11.2357    0.0000 C    0  0  0  0  0  0  0  0  0  0  0  0
    7.5620  -10.3151    0.0000 C    0  0  0  0  0  0  0  0  0  0  0  0
    9.8339   -9.9272    0.0000 C    0  0  0  0  0  0  0  0  0  0  0  0
    8.5864   -9.4629    0.0000 C    0  0  0  0  0  0  0  0  0  0  0  0
   15.2990  -13.3897    0.0000 Rh   0  0  0  0  0  0  0  0  0  0  0  0
   15.9594  -12.2459    0.0000 S    0  0  0  0  0  0  0  0  0  0  0  0
   16.6254  -13.3979    0.0000 H    0  0  0  0  0  0  0  0  0  0  0  0
   15.9648  -14.5421    0.0000 H    0  0  0  0  0  0  0  0  0  0  0  0
   14.2367   -7.4626    0.0000 P    0  0  0  0  0  0  0  0  0  0  0  0
   14.6341  -14.5414    0.0000 P    0  0  0  0  0  0  0  0  0  0  0  0
    9.2717  -13.4014    0.0000 P    0  0  0  0  0  0  0  0  0  0  0  0
   17.2681  -12.0182    0.0000 C    0  0  0  0  0  0  0  0  0  0  0  0
   18.1251  -13.0353    0.0000 C    0  0  0  0  0  0  0  0  0  0  0  0
   17.7325  -10.7707    0.0000 C    0  0  0  0  0  0  0  0  0  0  0  0
   19.4338  -12.8076    0.0000 C    0  0  0  0  0  0  0  0  0  0  0  0
   19.0414  -10.5437    0.0000 C    0  0  0  0  0  0  0  0  0  0  0  0
   19.8904  -11.5562    0.0000 C    0  0  0  0  0  0  0  0  0  0  0  0
   17.6731  -14.2788    0.0000 F    0  0  0  0  0  0  0  0  0  0  0  0
   20.2859  -13.8324    0.0000 F    0  0  0  0  0  0  0  0  0  0  0  0
   21.2071  -11.3331    0.0000 F    0  0  0  0  0  0  0  0  0  0  0  0
   19.4978   -9.2916    0.0000 F    0  0  0  0  0  0  0  0  0  0  0  0
   16.8759   -9.7539    0.0000 F    0  0  0  0  0  0  0  0  0  0  0  0
  1  2  1  0  0  0  0
  1  3  2  0  0  0  0
  2  4  2  0  0  0  0
  3  5  1  0  0  0  0
  4  6  1  0  0  0  0
  5  6  2  0  0  0  0
  7  8  1  0  0  0  0
  7  9  2  0  0  0  0
  8 10  2  0  0  0  0
  9 11  1  0  0  0  0
 10 12  1  0  0  0  0
 11 12  2  0  0  0  0
 13 14  1  0  0  0  0
 13 15  2  0  0  0  0
 14 16  2  0  0  0  0
 15 17  1  0  0  0  0
 16 18  1  0  0  0  0
 17 18  2  0  0  0  0
 19 20  1  0  0  0  0
 19 21  2  0  0  0  0
 20 22  2  0  0  0  0
 21 23  1  0  0  0  0
 22 24  1  0  0  0  0
 23 24  2  0  0  0  0
 25 26  1  0  0  0  0
 25 27  2  0  0  0  0
 26 28  2  0  0  0  0
 27 29  1  0  0  0  0
 28 30  1  0  0  0  0
 29 30  2  0  0  0  0
 31 32  1  0  0  0  0
 31 33  2  0  0  0  0
 32 34  2  0  0  0  0
 33 35  1  0  0  0  0
 34 36  1  0  0  0  0
 35 36  2  0  0  0  0
 37 38  1  0  0  0  0
 37 39  2  0  0  0  0
 38 40  2  0  0  0  0
 39 41  1  0  0  0  0
 40 42  1  0  0  0  0
 41 42  2  0  0  0  0
 43 44  1  0  0  0  0
 43 45  2  0  0  0  0
 44 46  2  0  0  0  0
 45 47  1  0  0  0  0
 46 48  1  0  0  0  0
 47 48  2  0  0  0  0
 49 50  1  0  0  0  0
 49 51  2  0  0  0  0
 50 52  2  0  0  0  0
 51 53  1  0  0  0  0
 52 54  1  0  0  0  0
 53 54  2  0  0  0  0
 55 56  1  0  0  0  0
 55 57  1  0  0  0  0
 55 58  1  0  0  0  0
 55 59  1  0  0  0  0
 55 60  1  0  0  0  0
 55 61  1  0  0  0  0
 49 61  1  0  0  0  0
 43 61  1  0  0  0  0
 39 61  1  0  0  0  0
 33 60  1  0  0  0  0
 29 60  1  0  0  0  0
 23 60  1  0  0  0  0
 18 59  1  0  0  0  0
 12 59  1  0  0  0  0
  4 59  1  0  0  0  0
 62 63  1  0  0  0  0
 62 64  2  0  0  0  0
 63 65  2  0  0  0  0
 64 66  1  0  0  0  0
 65 67  1  0  0  0  0
 66 67  2  0  0  0  0
 56 62  1  0  0  0  0
 63 68  1  0  0  0  0
 65 69  1  0  0  0  0
 67 70  1  0  0  0  0
 66 71  1  0  0  0  0
 64 72  1  0  0  0  0
M  END
> <NMREDATA_VERSION>
1.1

> <NMREDATA_LEVEL>
0

> <NMREDATA_SOLVENT>
toluene-d8

> <NMREDATA_TEMPERATURE>
248

> <NMREDATA_FORMULA>
C60H50F5P3RhS

> <NMREDATA_SMILES>
Fc1c(S[RhH2](P(c2ccccc2)(c2ccccc2)c2ccccc2)(P(c2ccccc2)(c2ccccc2)c2ccccc2)P(c2ccccc2)(c2ccccc2)c2ccccc2)c(F)c(c(c1F)F)F

> <NMREDATA_ASSIGNMENT>
Rh55, -221.00, 55

> <NMREDATA_1D_103Rh>
-221.00, L=Rh55

$$$$

  ACD/LABS03312417322D

 57 63  0  0  0  0  0  0  0  0  1 V2000
   12.5104   -4.3868    0.0000 C    0  0  0  0  0  0  0  0  0  0  0  0
   12.7453   -5.7002    0.0000 C    0  0  0  0  0  0  0  0  0  0  0  0
   13.5272   -3.5302    0.0000 C    0  0  0  0  0  0  0  0  0  0  0  0
   14.0017   -6.1491    0.0000 C    0  0  0  0  0  0  0  0  0  0  0  0
   14.7790   -3.9870    0.0000 C    0  0  0  0  0  0  0  0  0  0  0  0
   15.0186   -5.2925    0.0000 C    0  0  0  0  0  0  0  0  0  0  0  0
   10.3089   -8.1642    0.0000 C    0  0  0  0  0  0  0  0  0  0  0  0
   11.1655   -9.1810    0.0000 C    0  0  0  0  0  0  0  0  0  0  0  0
   10.7532   -6.9157    0.0000 C    0  0  0  0  0  0  0  0  0  0  0  0
   12.4789   -8.9460    0.0000 C    0  0  0  0  0  0  0  0  0  0  0  0
   12.0667   -6.6807    0.0000 C    0  0  0  0  0  0  0  0  0  0  0  0
   12.9233   -7.6976    0.0000 C    0  0  0  0  0  0  0  0  0  0  0  0
   16.4429  -17.5623    0.0000 C    0  0  0  0  0  0  0  0  0  0  0  0
   17.7022  -17.1015    0.0000 C    0  0  0  0  0  0  0  0  0  0  0  0
   15.4295  -16.7108    0.0000 C    0  0  0  0  0  0  0  0  0  0  0  0
   17.9237  -15.7958    0.0000 C    0  0  0  0  0  0  0  0  0  0  0  0
   15.6554  -15.3975    0.0000 C    0  0  0  0  0  0  0  0  0  0  0  0
   16.9024  -14.9397    0.0000 C    0  0  0  0  0  0  0  0  0  0  0  0
   13.8460  -12.3768    0.0000 C    0  0  0  0  0  0  0  0  0  0  0  0
   12.8286  -11.5331    0.0000 C    0  0  0  0  0  0  0  0  0  0  0  0
   13.6201  -13.6901    0.0000 C    0  0  0  0  0  0  0  0  0  0  0  0
   11.5812  -11.9907    0.0000 C    0  0  0  0  0  0  0  0  0  0  0  0
   12.3737  -14.1477    0.0000 C    0  0  0  0  0  0  0  0  0  0  0  0
   11.3553  -13.3039    0.0000 C    0  0  0  0  0  0  0  0  0  0  0  0
    7.2751  -12.2487    0.0000 C    0  0  0  0  0  0  0  0  0  0  0  0
    5.9442  -12.2484    0.0000 C    0  0  0  0  0  0  0  0  0  0  0  0
    7.9408  -13.4011    0.0000 C    0  0  0  0  0  0  0  0  0  0  0  0
    5.2790  -13.4005    0.0000 C    0  0  0  0  0  0  0  0  0  0  0  0
    7.2756  -14.5533    0.0000 C    0  0  0  0  0  0  0  0  0  0  0  0
    5.9449  -14.5526    0.0000 C    0  0  0  0  0  0  0  0  0  0  0  0
    9.0383  -14.7103    0.0000 C    0  0  0  0  0  0  0  0  0  0  0  0
   10.0640  -15.5589    0.0000 C    0  0  0  0  0  0  0  0  0  0  0  0
    7.7909  -15.1679    0.0000 C    0  0  0  0  0  0  0  0  0  0  0  0
    9.8305  -16.8678    0.0000 C    0  0  0  0  0  0  0  0  0  0  0  0
    7.5618  -16.4693    0.0000 C    0  0  0  0  0  0  0  0  0  0  0  0
    8.5833  -17.3250    0.0000 C    0  0  0  0  0  0  0  0  0  0  0  0
   15.2990  -13.3897    0.0000 Rh   0  0  0  0  0  0  0  0  0  0  0  0
   15.9594  -12.2459    0.0000 S    0  0  0  0  0  0  0  0  0  0  0  0
   16.6254  -13.3979    0.0000 H    0  0  0  0  0  0  0  0  0  0  0  0
   15.9648  -14.5421    0.0000 H    0  0  0  0  0  0  0  0  0  0  0  0
   14.2367   -7.4626    0.0000 P    0  0  0  0  0  0  0  0  0  0  0  0
   14.6341  -14.5414    0.0000 P    0  0  0  0  0  0  0  0  0  0  0  0
    9.2717  -13.4014    0.0000 P    0  0  0  0  0  0  0  0  0  0  0  0
   17.2681  -12.0182    0.0000 C    0  0  0  0  0  0  0  0  0  0  0  0
   18.1251  -13.0353    0.0000 C    0  0  0  0  0  0  0  0  0  0  0  0
   17.7325  -10.7707    0.0000 C    0  0  0  0  0  0  0  0  0  0  0  0
   19.4338  -12.8076    0.0000 C    0  0  0  0  0  0  0  0  0  0  0  0
   19.0414  -10.5437    0.0000 C    0  0  0  0  0  0  0  0  0  0  0  0
   19.8904  -11.5562    0.0000 C    0  0  0  0  0  0  0  0  0  0  0  0
   17.6731  -14.2788    0.0000 F    0  0  0  0  0  0  0  0  0  0  0  0
   20.2859  -13.8324    0.0000 F    0  0  0  0  0  0  0  0  0  0  0  0
   21.2071  -11.3331    0.0000 F    0  0  0  0  0  0  0  0  0  0  0  0
   19.4978   -9.2916    0.0000 F    0  0  0  0  0  0  0  0  0  0  0  0
   16.8759   -9.7539    0.0000 F    0  0  0  0  0  0  0  0  0  0  0  0
   15.6716   -7.0666    0.0000 C    0  0  0  0  0  0  0  0  0  0  0  0
   14.1653  -15.4472    0.0000 C    0  0  0  0  0  0  0  0  0  0  0  0
    9.1818  -12.1142    0.0000 C    0  0  0  0  0  0  0  0  0  0  0  0
  1  2  1  0  0  0  0
  1  3  2  0  0  0  0
  2  4  2  0  0  0  0
  3  5  1  0  0  0  0
  4  6  1  0  0  0  0
  5  6  2  0  0  0  0
  7  8  1  0  0  0  0
  7  9  2  0  0  0  0
  8 10  2  0  0  0  0
  9 11  1  0  0  0  0
 10 12  1  0  0  0  0
 11 12  2  0  0  0  0
 13 14  1  0  0  0  0
 13 15  2  0  0  0  0
 14 16  2  0  0  0  0
 15 17  1  0  0  0  0
 16 18  1  0  0  0  0
 17 18  2  0  0  0  0
 19 20  1  0  0  0  0
 19 21  2  0  0  0  0
 20 22  2  0  0  0  0
 21 23  1  0  0  0  0
 22 24  1  0  0  0  0
 23 24  2  0  0  0  0
 25 26  1  0  0  0  0
 25 27  2  0  0  0  0
 26 28  2  0  0  0  0
 27 29  1  0  0  0  0
 28 30  1  0  0  0  0
 29 30  2  0  0  0  0
 31 32  1  0  0  0  0
 31 33  2  0  0  0  0
 32 34  2  0  0  0  0
 33 35  1  0  0  0  0
 34 36  1  0  0  0  0
 35 36  2  0  0  0  0
 37 38  1  0  0  0  0
 37 39  1  0  0  0  0
 37 40  1  0  0  0  0
 37 41  1  0  0  0  0
 37 42  1  0  0  0  0
 37 43  1  0  0  0  0
 31 43  1  0  0  0  0
 27 43  1  0  0  0  0
 21 42  1  0  0  0  0
 17 42  1  0  0  0  0
 12 41  1  0  0  0  0
  4 41  1  0  0  0  0
 44 45  1  0  0  0  0
 44 46  2  0  0  0  0
 45 47  2  0  0  0  0
 46 48  1  0  0  0  0
 47 49  1  0  0  0  0
 48 49  2  0  0  0  0
 38 44  1  0  0  0  0
 45 50  1  0  0  0  0
 47 51  1  0  0  0  0
 49 52  1  0  0  0  0
 48 53  1  0  0  0  0
 46 54  1  0  0  0  0
 41 55  1  0  0  0  0
 42 56  1  0  0  0  0
 43 57  1  0  0  0  0
M  END
> <NMREDATA_VERSION>
1.1

> <NMREDATA_LEVEL>
0

> <NMREDATA_SOLVENT>
toluene-d8

> <NMREDATA_TEMPERATURE>
248

> <NMREDATA_FORMULA>
C45H44F5P3RhS

> <NMREDATA_SMILES>
Fc1c(S[RhH2](P(c2ccccc2)(c2ccccc2)C)(P(c2ccccc2)(c2ccccc2)C)P(c2ccccc2)(c2ccccc2)C)c(F)c(c(c1F)F)F

> <NMREDATA_ASSIGNMENT>
Rh37, -417.00, 37

> <NMREDATA_1D_103Rh>
-417.00, L=Rh37

$$$$

  ACD/LABS03312417342D

 34 36  0  0  0  0  0  0  0  0  1 V2000
   12.9506  -14.5411    0.0000 C    0  0  0  0  0  0  0  0  0  0  0  0
   15.5949  -14.7757    0.0000 C    0  0  0  0  0  0  0  0  0  0  0  0
   12.2807  -13.5764    0.0000 C    0  0  0  0  0  0  0  0  0  0  0  0
   13.5908  -11.3044    0.0000 C    0  0  0  0  0  0  0  0  0  0  0  0
   10.9226  -13.6538    0.0000 C    0  0  0  0  0  0  0  0  0  0  0  0
   12.2262  -15.9117    0.0000 C    0  0  0  0  0  0  0  0  0  0  0  0
   14.2855  -13.2175    0.0000 Rh   0  0  0  0  0  0  0  0  0  0  0  0
   16.7889  -11.7721    0.0000 Si   0  0  0  0  0  0  0  0  0  0  0  0
   15.4335  -13.8756    0.0000 H    0  0  0  0  0  0  0  0  0  0  0  0
   14.2820  -11.8985    0.0000 H    0  0  0  0  0  0  0  0  0  0  0  0
   14.2814  -14.5408    0.0000 P    0  0  0  0  0  0  0  0  0  0  0  0
   13.1299  -12.5637    0.0000 P    0  0  0  0  0  0  0  0  0  0  0  0
   11.7739  -14.6675    0.0000 P    0  0  0  0  0  0  0  0  0  0  0  0
   17.4538  -12.9239    0.0000 C    0  0  0  0  0  0  0  0  0  0  0  0
   18.7731  -12.9203    0.0000 C    0  0  0  0  0  0  0  0  0  0  0  0
   16.7838  -14.0688    0.0000 C    0  0  0  0  0  0  0  0  0  0  0  0
   19.4383  -14.0724    0.0000 C    0  0  0  0  0  0  0  0  0  0  0  0
   17.4490  -15.2209    0.0000 C    0  0  0  0  0  0  0  0  0  0  0  0
   18.7798  -15.2206    0.0000 C    0  0  0  0  0  0  0  0  0  0  0  0
   14.2817  -15.8716    0.0000 C    0  0  0  0  0  0  0  0  0  0  0  0
   11.9775  -11.8980    0.0000 C    0  0  0  0  0  0  0  0  0  0  0  0
   10.6218  -15.3327    0.0000 C    0  0  0  0  0  0  0  0  0  0  0  0
   17.9410  -11.1070    0.0000 C    0  0  0  0  0  0  0  0  0  0  0  0
   17.9375   -9.7880    0.0000 C    0  0  0  0  0  0  0  0  0  0  0  0
   19.0890  -11.7651    0.0000 C    0  0  0  0  0  0  0  0  0  0  0  0
   19.0896   -9.1229    0.0000 C    0  0  0  0  0  0  0  0  0  0  0  0
   20.2411  -11.1000    0.0000 C    0  0  0  0  0  0  0  0  0  0  0  0
   20.2376   -9.7810    0.0000 C    0  0  0  0  0  0  0  0  0  0  0  0
   16.1164  -10.6247    0.0000 C    0  0  0  0  0  0  0  0  0  0  0  0
   14.7974  -10.6282    0.0000 C    0  0  0  0  0  0  0  0  0  0  0  0
   16.7823   -9.4721    0.0000 C    0  0  0  0  0  0  0  0  0  0  0  0
   14.1322   -9.4761    0.0000 C    0  0  0  0  0  0  0  0  0  0  0  0
   16.1215   -8.3276    0.0000 C    0  0  0  0  0  0  0  0  0  0  0  0
   14.7904   -8.3280    0.0000 C    0  0  0  0  0  0  0  0  0  0  0  0
  7  8  1  0  0  0  0
  7  9  1  0  0  0  0
  7 10  1  0  0  0  0
  7 11  1  0  0  0  0
  7 12  1  0  0  0  0
  7 13  1  0  0  0  0
  6 13  1  0  0  0  0
  5 13  1  0  0  0  0
  4 12  1  0  0  0  0
  3 12  1  0  0  0  0
  2 11  1  0  0  0  0
  1 11  1  0  0  0  0
 14 15  1  0  0  0  0
 14 16  2  0  0  0  0
 15 17  2  0  0  0  0
 16 18  1  0  0  0  0
 17 19  1  0  0  0  0
 18 19  2  0  0  0  0
  8 14  1  0  0  0  0
 11 20  1  0  0  0  0
 12 21  1  0  0  0  0
 13 22  1  0  0  0  0
 23 24  1  0  0  0  0
 23 25  2  0  0  0  0
 24 26  2  0  0  0  0
 25 27  1  0  0  0  0
 26 28  1  0  0  0  0
 27 28  2  0  0  0  0
  8 23  1  0  0  0  0
 29 30  1  0  0  0  0
 29 31  2  0  0  0  0
 30 32  2  0  0  0  0
 31 33  1  0  0  0  0
 32 34  1  0  0  0  0
 33 34  2  0  0  0  0
  8 29  1  0  0  0  0
M  END
> <NMREDATA_VERSION>
1.1

> <NMREDATA_LEVEL>
0

> <NMREDATA_SOLVENT>
C6D6

> <NMREDATA_TEMPERATURE>
293

> <NMREDATA_FORMULA>
C27H47P3RhSi

> <NMREDATA_SMILES>
CP([RhH2]([Si](c1ccccc1)(c1ccccc1)c1ccccc1)(P(C)(C)C)P(C)(C)C)(C)C

> <NMREDATA_ASSIGNMENT>
Rh7, -1091.00, 7

> <NMREDATA_1D_103Rh>
-1091.00, L=Rh7

$$$$

  ACD/LABS03312417342D

 24 24  0  0  0  0  0  0  0  0  1 V2000
   12.9506  -14.5411    0.0000 C    0  0  0  0  0  0  0  0  0  0  0  0
   15.5949  -14.7757    0.0000 C    0  0  0  0  0  0  0  0  0  0  0  0
   12.2807  -13.5764    0.0000 C    0  0  0  0  0  0  0  0  0  0  0  0
   13.5908  -11.3044    0.0000 C    0  0  0  0  0  0  0  0  0  0  0  0
   10.9226  -13.6538    0.0000 C    0  0  0  0  0  0  0  0  0  0  0  0
   12.2262  -15.9117    0.0000 C    0  0  0  0  0  0  0  0  0  0  0  0
   14.2855  -13.2175    0.0000 Rh   0  0  0  0  0  0  0  0  0  0  0  0
   16.7889  -11.7721    0.0000 Si   0  0  0  0  0  0  0  0  0  0  0  0
   15.4335  -13.8756    0.0000 H    0  0  0  0  0  0  0  0  0  0  0  0
   14.2820  -11.8985    0.0000 H    0  0  0  0  0  0  0  0  0  0  0  0
   14.2814  -14.5408    0.0000 P    0  0  0  0  0  0  0  0  0  0  0  0
   13.1299  -12.5637    0.0000 P    0  0  0  0  0  0  0  0  0  0  0  0
   11.7739  -14.6675    0.0000 P    0  0  0  0  0  0  0  0  0  0  0  0
   17.4538  -12.9239    0.0000 C    0  0  0  0  0  0  0  0  0  0  0  0
   18.7731  -12.9203    0.0000 C    0  0  0  0  0  0  0  0  0  0  0  0
   16.7838  -14.0688    0.0000 C    0  0  0  0  0  0  0  0  0  0  0  0
   19.4383  -14.0724    0.0000 C    0  0  0  0  0  0  0  0  0  0  0  0
   17.4490  -15.2209    0.0000 C    0  0  0  0  0  0  0  0  0  0  0  0
   18.7798  -15.2206    0.0000 C    0  0  0  0  0  0  0  0  0  0  0  0
   14.2817  -15.8716    0.0000 C    0  0  0  0  0  0  0  0  0  0  0  0
   11.9775  -11.8980    0.0000 C    0  0  0  0  0  0  0  0  0  0  0  0
   10.6218  -15.3327    0.0000 C    0  0  0  0  0  0  0  0  0  0  0  0
   17.9410  -11.1070    0.0000 C    0  0  0  0  0  0  0  0  0  0  0  0
   16.1164  -10.6247    0.0000 C    0  0  0  0  0  0  0  0  0  0  0  0
  7  8  1  0  0  0  0
  7  9  1  0  0  0  0
  7 10  1  0  0  0  0
  7 11  1  0  0  0  0
  7 12  1  0  0  0  0
  7 13  1  0  0  0  0
  6 13  1  0  0  0  0
  5 13  1  0  0  0  0
  4 12  1  0  0  0  0
  3 12  1  0  0  0  0
  2 11  1  0  0  0  0
  1 11  1  0  0  0  0
 14 15  1  0  0  0  0
 14 16  2  0  0  0  0
 15 17  2  0  0  0  0
 16 18  1  0  0  0  0
 17 19  1  0  0  0  0
 18 19  2  0  0  0  0
  8 14  1  0  0  0  0
 11 20  1  0  0  0  0
 12 21  1  0  0  0  0
 13 22  1  0  0  0  0
  8 23  1  0  0  0  0
  8 24  1  0  0  0  0
M  END
> <NMREDATA_VERSION>
1.1

> <NMREDATA_LEVEL>
0

> <NMREDATA_SOLVENT>
C6D6

> <NMREDATA_TEMPERATURE>
293

> <NMREDATA_FORMULA>
C17H43P3RhSi

> <NMREDATA_SMILES>
C[Si]([RhH2](P(C)(C)C)(P(C)(C)C)P(C)(C)C)(c1ccccc1)C

> <NMREDATA_ASSIGNMENT>
Rh7, -1108.00, 7

> <NMREDATA_1D_103Rh>
-1108.00, L=Rh7

$$$$

  ACD/LABS03312417352D

 25 24  0  0  0  0  0  0  0  0  1 V2000
   12.9506  -14.5411    0.0000 C    0  0  0  0  0  0  0  0  0  0  0  0
   15.5949  -14.7757    0.0000 C    0  0  0  0  0  0  0  0  0  0  0  0
   12.2807  -13.5764    0.0000 C    0  0  0  0  0  0  0  0  0  0  0  0
   13.5908  -11.3044    0.0000 C    0  0  0  0  0  0  0  0  0  0  0  0
   10.9226  -13.6538    0.0000 C    0  0  0  0  0  0  0  0  0  0  0  0
   12.2262  -15.9117    0.0000 C    0  0  0  0  0  0  0  0  0  0  0  0
   14.2855  -13.2175    0.0000 Rh   0  0  0  0  0  0  0  0  0  0  0  0
   16.7889  -11.7721    0.0000 Si   0  0  0  0  0  0  0  0  0  0  0  0
   15.4335  -13.8756    0.0000 H    0  0  0  0  0  0  0  0  0  0  0  0
   14.2820  -11.8985    0.0000 H    0  0  0  0  0  0  0  0  0  0  0  0
   14.2814  -14.5408    0.0000 P    0  0  0  0  0  0  0  0  0  0  0  0
   13.1299  -12.5637    0.0000 P    0  0  0  0  0  0  0  0  0  0  0  0
   11.7739  -14.6675    0.0000 P    0  0  0  0  0  0  0  0  0  0  0  0
   17.4538  -12.9239    0.0000 O    0  0  0  0  0  0  0  0  0  0  0  0
   14.2817  -15.8716    0.0000 C    0  0  0  0  0  0  0  0  0  0  0  0
   11.9775  -11.8980    0.0000 C    0  0  0  0  0  0  0  0  0  0  0  0
   10.6218  -15.3327    0.0000 C    0  0  0  0  0  0  0  0  0  0  0  0
   17.9410  -11.1070    0.0000 O    0  0  0  0  0  0  0  0  0  0  0  0
   16.1164  -10.6247    0.0000 O    0  0  0  0  0  0  0  0  0  0  0  0
   16.3286   -9.4702    0.0000 C    0  0  0  0  0  0  0  0  0  0  0  0
   17.5816   -9.0244    0.0000 C    0  0  0  0  0  0  0  0  0  0  0  0
   18.6841  -10.3355    0.0000 C    0  0  0  0  0  0  0  0  0  0  0  0
   19.9750  -10.6557    0.0000 C    0  0  0  0  0  0  0  0  0  0  0  0
   18.7162  -12.4347    0.0000 C    0  0  0  0  0  0  0  0  0  0  0  0
   19.7524  -13.2684    0.0000 C    0  0  0  0  0  0  0  0  0  0  0  0
  7  8  1  0  0  0  0
  7  9  1  0  0  0  0
  7 10  1  0  0  0  0
  7 11  1  0  0  0  0
  7 12  1  0  0  0  0
  7 13  1  0  0  0  0
  6 13  1  0  0  0  0
  5 13  1  0  0  0  0
  4 12  1  0  0  0  0
  3 12  1  0  0  0  0
  2 11  1  0  0  0  0
  1 11  1  0  0  0  0
  8 14  1  0  0  0  0
 11 15  1  0  0  0  0
 12 16  1  0  0  0  0
 13 17  1  0  0  0  0
  8 18  1  0  0  0  0
  8 19  1  0  0  0  0
 19 20  1  0  0  0  0
 20 21  1  0  0  0  0
 18 22  1  0  0  0  0
 22 23  1  0  0  0  0
 14 24  1  0  0  0  0
 24 25  1  0  0  0  0
M  END
> <NMREDATA_VERSION>
1.1

> <NMREDATA_LEVEL>
0

> <NMREDATA_SOLVENT>
C6D6

> <NMREDATA_TEMPERATURE>
293

> <NMREDATA_FORMULA>
C15H47O3P3RhSi

> <NMREDATA_SMILES>
CCO[Si]([RhH2](P(C)(C)C)(P(C)(C)C)P(C)(C)C)(OCC)OCC

> <NMREDATA_ASSIGNMENT>
Rh7, -1222.00, 7

> <NMREDATA_1D_103Rh>
-1222.00, L=Rh7

$$$$

  ACD/LABS03312417452D

 72 82  0  0  0  0  0  0  0  0  1 V2000
   11.3111  -18.2595    0.0000 C    0  0  0  0  0  0  0  0  0  0  0  0
   11.3111  -19.5895    0.0000 C    0  0  0  0  0  0  0  0  0  0  0  0
   10.1592  -17.5945    0.0000 C    0  0  0  0  0  0  0  0  0  0  0  0
   10.1592  -20.2545    0.0000 C    0  0  0  0  0  0  0  0  0  0  0  0
    9.0074  -18.2595    0.0000 C    0  0  0  0  0  0  0  0  0  0  0  0
    9.0074  -19.5895    0.0000 C    0  0  0  0  0  0  0  0  0  0  0  0
   11.3592  -13.7727    0.0000 C    0  0  0  0  0  0  0  0  0  0  0  0
   11.3592  -15.1027    0.0000 C    0  0  0  0  0  0  0  0  0  0  0  0
   10.2073  -13.1077    0.0000 C    0  0  0  0  0  0  0  0  0  0  0  0
   10.2073  -15.7677    0.0000 C    0  0  0  0  0  0  0  0  0  0  0  0
    9.0555  -13.7727    0.0000 C    0  0  0  0  0  0  0  0  0  0  0  0
    9.0555  -15.1027    0.0000 C    0  0  0  0  0  0  0  0  0  0  0  0
   11.9521  -10.6640    0.0000 C    0  0  0  0  0  0  0  0  0  0  0  0
   11.9521  -11.9940    0.0000 C    0  0  0  0  0  0  0  0  0  0  0  0
   10.8002   -9.9990    0.0000 C    0  0  0  0  0  0  0  0  0  0  0  0
   10.8002  -12.6590    0.0000 C    0  0  0  0  0  0  0  0  0  0  0  0
    9.6484  -10.6640    0.0000 C    0  0  0  0  0  0  0  0  0  0  0  0
    9.6484  -11.9940    0.0000 C    0  0  0  0  0  0  0  0  0  0  0  0
   15.4793  -14.4858    0.0000 Rh   0  0  0  0  0  0  0  0  0  0  0  0
   13.9890  -13.3000    0.0000 P    0  0  0  0  0  0  0  0  0  0  0  0
   17.4502  -13.3801    0.0000 P    0  0  0  0  0  0  0  0  0  0  0  0
   14.8845   -9.6225    0.0000 C    0  0  0  0  0  0  0  0  0  0  0  0
   14.8845  -10.9525    0.0000 C    0  0  0  0  0  0  0  0  0  0  0  0
   13.7326   -8.9575    0.0000 C    0  0  0  0  0  0  0  0  0  0  0  0
   13.7326  -11.6175    0.0000 C    0  0  0  0  0  0  0  0  0  0  0  0
   12.5808   -9.6225    0.0000 C    0  0  0  0  0  0  0  0  0  0  0  0
   12.5808  -10.9525    0.0000 C    0  0  0  0  0  0  0  0  0  0  0  0
   18.6021  -10.1032    0.0000 C    0  0  0  0  0  0  0  0  0  0  0  0
   18.6021  -11.4332    0.0000 C    0  0  0  0  0  0  0  0  0  0  0  0
   17.4502   -9.4382    0.0000 C    0  0  0  0  0  0  0  0  0  0  0  0
   17.4502  -12.0982    0.0000 C    0  0  0  0  0  0  0  0  0  0  0  0
   16.2984  -10.1032    0.0000 C    0  0  0  0  0  0  0  0  0  0  0  0
   16.2984  -11.4332    0.0000 C    0  0  0  0  0  0  0  0  0  0  0  0
   21.5345  -11.0486    0.0000 C    0  0  0  0  0  0  0  0  0  0  0  0
   21.5345  -12.3786    0.0000 C    0  0  0  0  0  0  0  0  0  0  0  0
   20.3826  -10.3836    0.0000 C    0  0  0  0  0  0  0  0  0  0  0  0
   20.3826  -13.0436    0.0000 C    0  0  0  0  0  0  0  0  0  0  0  0
   19.2308  -11.0486    0.0000 C    0  0  0  0  0  0  0  0  0  0  0  0
   19.2308  -12.3786    0.0000 C    0  0  0  0  0  0  0  0  0  0  0  0
   21.5986  -14.4618    0.0000 C    0  0  0  0  0  0  0  0  0  0  0  0
   21.5986  -15.7918    0.0000 C    0  0  0  0  0  0  0  0  0  0  0  0
   20.4467  -13.7968    0.0000 C    0  0  0  0  0  0  0  0  0  0  0  0
   20.4467  -16.4568    0.0000 C    0  0  0  0  0  0  0  0  0  0  0  0
   19.2949  -14.4618    0.0000 C    0  0  0  0  0  0  0  0  0  0  0  0
   19.2949  -15.7918    0.0000 C    0  0  0  0  0  0  0  0  0  0  0  0
   13.4442  -15.3831    0.0000 H    0  0  0  0  0  0  0  0  0  0  0  0
   12.9635  -16.8894    0.0000 Sn   0  0  0  0  0  4  0  0  0  0  0  0
   13.2784  -18.1816    0.0000 C    0  0  0  0  0  0  0  0  0  0  0  0
   14.5549  -18.5550    0.0000 C    0  0  0  0  0  0  0  0  0  0  0  0
   12.3167  -19.1004    0.0000 C    0  0  0  0  0  0  0  0  0  0  0  0
   14.8697  -19.8473    0.0000 C    0  0  0  0  0  0  0  0  0  0  0  0
   12.6315  -20.3926    0.0000 C    0  0  0  0  0  0  0  0  0  0  0  0
   13.9080  -20.7661    0.0000 C    0  0  0  0  0  0  0  0  0  0  0  0
   11.6870  -16.5160    0.0000 C    0  0  0  0  0  0  0  0  0  0  0  0
   10.7253  -17.4347    0.0000 C    0  0  0  0  0  0  0  0  0  0  0  0
   11.3721  -15.2237    0.0000 C    0  0  0  0  0  0  0  0  0  0  0  0
    9.4488  -17.0612    0.0000 C    0  0  0  0  0  0  0  0  0  0  0  0
   10.0956  -14.8503    0.0000 C    0  0  0  0  0  0  0  0  0  0  0  0
    9.1340  -15.7691    0.0000 C    0  0  0  0  0  0  0  0  0  0  0  0
   16.7612  -16.9855    0.0000 O    0  0  0  0  0  0  0  0  0  0  0  0
   18.3636  -17.6425    0.0000 C    0  0  0  0  0  0  0  0  0  0  0  0
   19.2449  -17.1939    0.0000 O    0  0  0  0  0  0  0  0  0  0  0  0
   18.4180  -18.9714    0.0000 C    0  0  0  0  0  0  0  0  0  0  0  0
   19.5960  -19.5888    0.0000 C    0  0  0  0  0  0  0  0  0  0  0  0
   17.2943  -19.6830    0.0000 N    0  0  0  0  0  0  0  0  0  0  0  0
   19.6503  -20.9178    0.0000 C    0  0  0  0  0  0  0  0  0  0  0  0
   17.3487  -21.0119    0.0000 C    0  0  0  0  0  0  0  0  0  0  0  0
   18.5267  -21.6293    0.0000 C    0  0  0  0  0  0  0  0  0  0  0  0
   20.7198  -18.8773    0.0000 C    0  0  0  0  0  0  0  0  0  0  0  0
   21.8978  -19.4949    0.0000 C    0  0  0  0  0  0  0  0  0  0  0  0
   20.8283  -21.5352    0.0000 C    0  0  0  0  0  0  0  0  0  0  0  0
   21.9520  -20.8237    0.0000 C    0  0  0  0  0  0  0  0  0  0  0  0
  1  2  1  0  0  0  0
  1  3  2  0  0  0  0
  2  4  2  0  0  0  0
  3  5  1  0  0  0  0
  4  6  1  0  0  0  0
  5  6  2  0  0  0  0
  7  8  1  0  0  0  0
  7  9  2  0  0  0  0
  8 10  2  0  0  0  0
  9 11  1  0  0  0  0
 10 12  1  0  0  0  0
 11 12  2  0  0  0  0
 13 14  1  0  0  0  0
 13 15  2  0  0  0  0
 14 16  2  0  0  0  0
 15 17  1  0  0  0  0
 16 18  1  0  0  0  0
 17 18  2  0  0  0  0
 19 20  1  0  0  0  0
 19 21  1  0  0  0  0
 22 23  1  0  0  0  0
 22 24  2  0  0  0  0
 23 25  2  0  0  0  0
 24 26  1  0  0  0  0
 25 27  1  0  0  0  0
 26 27  2  0  0  0  0
 20 25  1  0  0  0  0
 14 20  1  0  0  0  0
  7 20  1  0  0  0  0
 28 29  1  0  0  0  0
 28 30  2  0  0  0  0
 29 31  2  0  0  0  0
 30 32  1  0  0  0  0
 31 33  1  0  0  0  0
 32 33  2  0  0  0  0
 21 31  1  0  0  0  0
 34 35  1  0  0  0  0
 34 36  2  0  0  0  0
 35 37  2  0  0  0  0
 36 38  1  0  0  0  0
 37 39  1  0  0  0  0
 38 39  2  0  0  0  0
 21 39  1  0  0  0  0
 40 41  1  0  0  0  0
 40 42  2  0  0  0  0
 41 43  2  0  0  0  0
 42 44  1  0  0  0  0
 43 45  1  0  0  0  0
 44 45  2  0  0  0  0
 21 44  1  0  0  0  0
 19 46  1  0  0  0  0
 19 47  1  0  0  0  0
 48 49  1  0  0  0  0
 48 50  2  0  0  0  0
 49 51  2  0  0  0  0
 50 52  1  0  0  0  0
 51 53  1  0  0  0  0
 52 53  2  0  0  0  0
 47 48  1  0  0  0  0
 54 55  1  0  0  0  0
 54 56  2  0  0  0  0
 55 57  2  0  0  0  0
 56 58  1  0  0  0  0
 57 59  1  0  0  0  0
 58 59  2  0  0  0  0
 47 54  1  0  0  0  0
  1 47  1  0  0  0  0
 19 60  1  0  0  0  0
 60 61  1  0  0  0  0
 61 62  2  0  0  0  0
 63 64  1  0  0  0  0
 63 65  2  0  0  0  0
 65 67  1  0  0  0  0
 66 68  1  0  0  0  0
 67 68  2  0  0  0  0
 61 63  1  0  0  0  0
 64 69  1  0  0  0  0
 64 66  2  0  0  0  0
 69 70  2  0  0  0  0
 66 71  1  0  0  0  0
 70 72  1  0  0  0  0
 71 72  2  0  0  0  0
M  END
> <NMREDATA_VERSION>
1.1

> <NMREDATA_LEVEL>
0

> <NMREDATA_SOLVENT>
CD2Cl2

> <NMREDATA_TEMPERATURE>
248

> <NMREDATA_FORMULA>
C64H54NO2P2RhSn

> <NMREDATA_SMILES>
O=C(c1nccc2c1cccc2)O[RhH]([Sn](c1ccccc1)(c1ccccc1)c1ccccc1)(P(c1ccccc1)(c1ccccc1)c1ccccc1)P(c1ccccc1)(c1ccccc1)c1ccccc1

> <NMREDATA_ASSIGNMENT>
Rh19, 798.00, 19

> <NMREDATA_1D_103Rh>
798.00, L=Rh19

$$$$

  ACD/LABS03312418032D

 49 55  0  0  0  0  0  0  0  0  1 V2000
   20.2432  -19.2760    0.0000 C    0  0  0  0  0  0  0  0  0  0  0  0
   21.0940  -18.2566    0.0000 C    0  0  0  0  0  0  0  0  0  0  0  0
   18.9311  -19.0456    0.0000 C    0  0  0  0  0  0  0  0  0  0  0  0
   20.6419  -17.0067    0.0000 C    0  0  0  0  0  0  0  0  0  0  0  0
   18.4790  -17.7957    0.0000 C    0  0  0  0  0  0  0  0  0  0  0  0
   19.3298  -16.7762    0.0000 C    0  0  0  0  0  0  0  0  0  0  0  0
   15.4118  -19.0456    0.0000 C    0  0  0  0  0  0  0  0  0  0  0  0
   14.0997  -19.2760    0.0000 C    0  0  0  0  0  0  0  0  0  0  0  0
   15.8548  -17.7957    0.0000 C    0  0  0  0  0  0  0  0  0  0  0  0
   13.2485  -18.2566    0.0000 C    0  0  0  0  0  0  0  0  0  0  0  0
   15.0127  -16.7762    0.0000 C    0  0  0  0  0  0  0  0  0  0  0  0
   13.7006  -17.0067    0.0000 C    0  0  0  0  0  0  0  0  0  0  0  0
   17.1669  -18.8949    0.0000 C    0  0  0  0  0  0  0  0  0  0  0  0
   16.0143  -19.5599    0.0000 C    0  0  0  0  0  0  0  0  0  0  0  0
   18.3191  -19.5599    0.0000 C    0  0  0  0  0  0  0  0  0  0  0  0
   16.0143  -20.8895    0.0000 C    0  0  0  0  0  0  0  0  0  0  0  0
   18.3191  -20.8895    0.0000 C    0  0  0  0  0  0  0  0  0  0  0  0
   17.1669  -21.5545    0.0000 C    0  0  0  0  0  0  0  0  0  0  0  0
   17.1669  -16.2352    0.0000 Rh   0  0  0  0  0  0  0  0  0  0  0  0
   18.3191  -16.9002    0.0000 Cl   0  0  0  0  0  0  0  0  0  0  0  0
   16.0143  -16.9002    0.0000 Cl   0  0  0  0  0  0  0  0  0  0  0  0
   18.3191  -15.5797    0.0000 H    0  0  0  0  0  0  0  0  0  0  0  0
   13.3019  -14.0105    0.0000 P    0  0  0  0  0  0  0  0  0  0  0  0
   17.1669  -17.5652    0.0000 P    0  0  0  0  0  0  0  0  0  0  0  0
   12.6369  -17.4588    0.0000 C    0  0  0  0  0  0  0  0  0  0  0  0
   11.3069  -17.4588    0.0000 C    0  0  0  0  0  0  0  0  0  0  0  0
   13.3019  -16.3062    0.0000 C    0  0  0  0  0  0  0  0  0  0  0  0
   10.6423  -16.3062    0.0000 C    0  0  0  0  0  0  0  0  0  0  0  0
   12.6369  -15.1631    0.0000 C    0  0  0  0  0  0  0  0  0  0  0  0
   11.3069  -15.1631    0.0000 C    0  0  0  0  0  0  0  0  0  0  0  0
   13.9666  -10.5618    0.0000 C    0  0  0  0  0  0  0  0  0  0  0  0
   15.2966  -10.5618    0.0000 C    0  0  0  0  0  0  0  0  0  0  0  0
   13.3019  -11.7144    0.0000 C    0  0  0  0  0  0  0  0  0  0  0  0
   15.9521  -11.7144    0.0000 C    0  0  0  0  0  0  0  0  0  0  0  0
   13.9666  -12.8579    0.0000 C    0  0  0  0  0  0  0  0  0  0  0  0
   15.2966  -12.8579    0.0000 C    0  0  0  0  0  0  0  0  0  0  0  0
    9.8533  -12.0158    0.0000 C    0  0  0  0  0  0  0  0  0  0  0  0
    9.8533  -13.3455    0.0000 C    0  0  0  0  0  0  0  0  0  0  0  0
   11.0055  -11.3508    0.0000 C    0  0  0  0  0  0  0  0  0  0  0  0
   11.0055  -14.0105    0.0000 C    0  0  0  0  0  0  0  0  0  0  0  0
   12.1581  -12.0158    0.0000 C    0  0  0  0  0  0  0  0  0  0  0  0
   12.1581  -13.3455    0.0000 C    0  0  0  0  0  0  0  0  0  0  0  0
   17.1669  -14.9147    0.0000 N    0  0  0  0  0  0  0  0  0  0  0  0
   18.2394  -14.1345    0.0000 N    0  0  0  0  0  0  0  0  0  0  0  0
   16.0940  -14.1345    0.0000 C    0  0  0  0  0  0  0  0  0  0  0  0
   17.8315  -12.8758    0.0000 C    0  0  0  0  0  0  0  0  0  0  0  0
   16.5019  -12.8758    0.0000 C    0  0  0  0  0  0  0  0  0  0  0  0
   18.6117  -11.7942    0.0000 C    0  0  0  0  0  0  0  0  0  0  0  0
   14.8353  -14.5511    0.0000 C    0  0  0  0  0  0  0  0  0  0  0  0
  1  2  1  0  0  0  0
  1  3  2  0  0  0  0
  2  4  2  0  0  0  0
  3  5  1  0  0  0  0
  4  6  1  0  0  0  0
  5  6  2  0  0  0  0
  7  8  1  0  0  0  0
  7  9  2  0  0  0  0
  8 10  2  0  0  0  0
  9 11  1  0  0  0  0
 10 12  1  0  0  0  0
 11 12  2  0  0  0  0
 13 14  1  0  0  0  0
 13 15  2  0  0  0  0
 14 16  2  0  0  0  0
 15 17  1  0  0  0  0
 16 18  1  0  0  0  0
 17 18  2  0  0  0  0
 19 20  1  0  0  0  0
 19 21  1  0  0  0  0
 19 22  1  0  0  0  0
 19 23  1  0  0  0  0
 19 24  1  0  0  0  0
 13 24  1  0  0  0  0
  9 24  1  0  0  0  0
  5 24  1  0  0  0  0
 25 26  1  0  0  0  0
 25 27  2  0  0  0  0
 26 28  2  0  0  0  0
 27 29  1  0  0  0  0
 28 30  1  0  0  0  0
 29 30  2  0  0  0  0
 23 29  1  0  0  0  0
 31 32  1  0  0  0  0
 31 33  2  0  0  0  0
 32 34  2  0  0  0  0
 33 35  1  0  0  0  0
 34 36  1  0  0  0  0
 35 36  2  0  0  0  0
 23 35  1  0  0  0  0
 37 38  1  0  0  0  0
 37 39  2  0  0  0  0
 38 40  2  0  0  0  0
 39 41  1  0  0  0  0
 40 42  1  0  0  0  0
 41 42  2  0  0  0  0
 23 42  1  0  0  0  0
 43 44  1  0  0  0  0
 43 45  1  0  0  0  0
 44 46  2  0  0  0  0
 45 47  2  0  0  0  0
 46 47  1  0  0  0  0
 19 43  1  0  0  0  0
 46 48  1  0  0  0  0
 45 49  1  0  0  0  0
M  END
> <NMREDATA_VERSION>
1.1

> <NMREDATA_LEVEL>
0

> <NMREDATA_SOLVENT>
CD2Cl2

> <NMREDATA_TEMPERATURE>
300

> <NMREDATA_FORMULA>
C41H40Cl2N2P2Rh

> <NMREDATA_SMILES>
Cc1cc(n(n1)[RhH](P(c1ccccc1)(c1ccccc1)c1ccccc1)(P(c1ccccc1)(c1ccccc1)c1ccccc1)(Cl)Cl)C

> <NMREDATA_ASSIGNMENT>
Rh19, 2091.00, 19

> <NMREDATA_1D_103Rh>
2091.00, L=Rh19

$$$$

  ACD/LABS04012414362D

 80 91  0  0  0  0  0  0  0  0  1 V2000
    9.8369  -14.0131    0.0000 C    0  0  0  0  0  0  0  0  0  0  0  0
    9.8369  -15.3431    0.0000 C    0  0  0  0  0  0  0  0  0  0  0  0
    8.6850  -13.3481    0.0000 C    0  0  0  0  0  0  0  0  0  0  0  0
    8.6850  -16.0081    0.0000 C    0  0  0  0  0  0  0  0  0  0  0  0
    7.5332  -14.0131    0.0000 C    0  0  0  0  0  0  0  0  0  0  0  0
    7.5332  -15.3431    0.0000 C    0  0  0  0  0  0  0  0  0  0  0  0
   21.9191   -9.5744    0.0000 C    0  0  0  0  0  0  0  0  0  0  0  0
   21.9191  -10.9044    0.0000 C    0  0  0  0  0  0  0  0  0  0  0  0
   20.7672   -8.9094    0.0000 C    0  0  0  0  0  0  0  0  0  0  0  0
   20.7672  -11.5694    0.0000 C    0  0  0  0  0  0  0  0  0  0  0  0
   19.6154   -9.5744    0.0000 C    0  0  0  0  0  0  0  0  0  0  0  0
   19.6154  -10.9044    0.0000 C    0  0  0  0  0  0  0  0  0  0  0  0
   14.5799  -16.8101    0.0000 C    0  0  0  0  0  0  0  0  0  0  0  0
   15.2147  -17.9788    0.0000 C    0  0  0  0  0  0  0  0  0  0  0  0
   15.2746  -15.6760    0.0000 C    0  0  0  0  0  0  0  0  0  0  0  0
   16.5443  -18.0134    0.0000 C    0  0  0  0  0  0  0  0  0  0  0  0
   16.6042  -15.7106    0.0000 C    0  0  0  0  0  0  0  0  0  0  0  0
   17.2390  -16.8793    0.0000 C    0  0  0  0  0  0  0  0  0  0  0  0
   18.3984  -16.6007    0.0000 C    0  0  0  0  0  0  0  0  0  0  0  0
   19.5326  -17.2955    0.0000 C    0  0  0  0  0  0  0  0  0  0  0  0
   18.4330  -15.2712    0.0000 C    0  0  0  0  0  0  0  0  0  0  0  0
   20.7013  -16.6607    0.0000 C    0  0  0  0  0  0  0  0  0  0  0  0
   19.6017  -14.6364    0.0000 C    0  0  0  0  0  0  0  0  0  0  0  0
   20.7359  -15.3311    0.0000 C    0  0  0  0  0  0  0  0  0  0  0  0
   16.1648  -13.8817    0.0000 C    0  0  0  0  0  0  0  0  0  0  0  0
   16.1994  -12.5522    0.0000 C    0  0  0  0  0  0  0  0  0  0  0  0
   14.9960  -14.5165    0.0000 C    0  0  0  0  0  0  0  0  0  0  0  0
   15.0652  -11.8574    0.0000 C    0  0  0  0  0  0  0  0  0  0  0  0
   13.8619  -13.8218    0.0000 C    0  0  0  0  0  0  0  0  0  0  0  0
   13.8965  -12.4923    0.0000 C    0  0  0  0  0  0  0  0  0  0  0  0
   16.1825   -5.5844    0.0000 C    0  0  0  0  0  0  0  0  0  0  0  0
   16.1825   -6.9144    0.0000 C    0  0  0  0  0  0  0  0  0  0  0  0
   15.0305   -4.9194    0.0000 C    0  0  0  0  0  0  0  0  0  0  0  0
   15.0305   -7.5794    0.0000 C    0  0  0  0  0  0  0  0  0  0  0  0
   13.8788   -5.5844    0.0000 C    0  0  0  0  0  0  0  0  0  0  0  0
   13.8788   -6.9144    0.0000 C    0  0  0  0  0  0  0  0  0  0  0  0
   13.3462   -6.0010    0.0000 C    0  0  0  0  0  0  0  0  0  0  0  0
   13.3462   -7.3310    0.0000 C    0  0  0  0  0  0  0  0  0  0  0  0
   12.1943   -5.3360    0.0000 C    0  0  0  0  0  0  0  0  0  0  0  0
   12.1943   -7.9960    0.0000 C    0  0  0  0  0  0  0  0  0  0  0  0
   11.0425   -6.0010    0.0000 C    0  0  0  0  0  0  0  0  0  0  0  0
   11.0425   -7.3310    0.0000 C    0  0  0  0  0  0  0  0  0  0  0  0
   11.2951   -8.7411    0.0000 C    0  0  0  0  0  0  0  0  0  0  0  0
   11.2951  -10.0711    0.0000 C    0  0  0  0  0  0  0  0  0  0  0  0
   10.1432   -8.0761    0.0000 C    0  0  0  0  0  0  0  0  0  0  0  0
   10.1432  -10.7361    0.0000 C    0  0  0  0  0  0  0  0  0  0  0  0
    8.9914   -8.7411    0.0000 C    0  0  0  0  0  0  0  0  0  0  0  0
    8.9914  -10.0711    0.0000 C    0  0  0  0  0  0  0  0  0  0  0  0
   16.2645  -10.2394    0.0000 Rh   0  0  0  0  0  0  0  0  0  0  0  0
   14.4698   -8.8133    0.0000 P    0  0  0  0  0  0  0  0  0  0  0  0
   17.0657   -7.8198    0.0000 H    0  0  0  0  0  0  0  0  0  0  0  0
   17.2989  -11.3396    0.0000 N    0  0  0  0  0  0  0  0  0  0  0  0
   18.5096  -12.6000    0.0000 C    0  0  0  0  0  0  0  0  0  0  0  0
   17.2989  -14.5765    0.0000 B    0  0  0  0  0  0  0  0  0  0  0  0
   19.3571   -8.9895    0.0000 Sn   0  0  0  0  0  4  0  0  0  0  0  0
   19.5421   -7.6724    0.0000 C    0  0  0  0  0  0  0  0  0  0  0  0
   18.4940   -6.8537    0.0000 C    0  0  0  0  0  0  0  0  0  0  0  0
   20.7752   -7.1740    0.0000 C    0  0  0  0  0  0  0  0  0  0  0  0
   18.6790   -5.5366    0.0000 C    0  0  0  0  0  0  0  0  0  0  0  0
   20.9602   -5.8570    0.0000 C    0  0  0  0  0  0  0  0  0  0  0  0
   19.9121   -5.0383    0.0000 C    0  0  0  0  0  0  0  0  0  0  0  0
   24.1304   -6.1452    0.0000 C    0  0  0  0  0  0  0  0  0  0  0  0
   24.1304   -7.4752    0.0000 C    0  0  0  0  0  0  0  0  0  0  0  0
   22.9785   -5.4802    0.0000 C    0  0  0  0  0  0  0  0  0  0  0  0
   22.9785   -8.1402    0.0000 C    0  0  0  0  0  0  0  0  0  0  0  0
   21.8267   -6.1452    0.0000 C    0  0  0  0  0  0  0  0  0  0  0  0
   21.8267   -7.4752    0.0000 C    0  0  0  0  0  0  0  0  0  0  0  0
   11.5534  -12.8353    0.0000 P    0  0  0  0  0  0  0  0  0  0  0  0
   11.5268  -14.1650    0.0000 C    0  0  0  0  0  0  0  0  0  0  0  0
   12.6651  -14.8529    0.0000 C    0  0  0  0  0  0  0  0  0  0  0  0
   10.3619  -14.8070    0.0000 C    0  0  0  0  0  0  0  0  0  0  0  0
   12.6385  -16.1827    0.0000 C    0  0  0  0  0  0  0  0  0  0  0  0
   10.3353  -16.1367    0.0000 C    0  0  0  0  0  0  0  0  0  0  0  0
   11.4736  -16.8246    0.0000 C    0  0  0  0  0  0  0  0  0  0  0  0
   10.4151  -12.1474    0.0000 C    0  0  0  0  0  0  0  0  0  0  0  0
    9.2502  -12.7893    0.0000 C    0  0  0  0  0  0  0  0  0  0  0  0
   10.4416  -10.8176    0.0000 C    0  0  0  0  0  0  0  0  0  0  0  0
    8.1119  -12.1013    0.0000 C    0  0  0  0  0  0  0  0  0  0  0  0
    9.3033  -10.1298    0.0000 C    0  0  0  0  0  0  0  0  0  0  0  0
    8.1385  -10.7716    0.0000 C    0  0  0  0  0  0  0  0  0  0  0  0
  1  2  1  0  0  0  0
  1  3  2  0  0  0  0
  2  4  2  0  0  0  0
  3  5  1  0  0  0  0
  4  6  1  0  0  0  0
  5  6  2  0  0  0  0
  7  8  1  0  0  0  0
  7  9  2  0  0  0  0
  8 10  2  0  0  0  0
  9 11  1  0  0  0  0
 10 12  1  0  0  0  0
 11 12  2  0  0  0  0
 13 14  1  0  0  0  0
 13 15  2  0  0  0  0
 14 16  2  0  0  0  0
 15 17  1  0  0  0  0
 16 18  1  0  0  0  0
 17 18  2  0  0  0  0
 19 20  1  0  0  0  0
 19 21  2  0  0  0  0
 20 22  2  0  0  0  0
 21 23  1  0  0  0  0
 22 24  1  0  0  0  0
 23 24  2  0  0  0  0
 25 26  1  0  0  0  0
 25 27  2  0  0  0  0
 26 28  2  0  0  0  0
 27 29  1  0  0  0  0
 28 30  1  0  0  0  0
 29 30  2  0  0  0  0
 31 32  1  0  0  0  0
 31 33  2  0  0  0  0
 32 34  2  0  0  0  0
 33 35  1  0  0  0  0
 34 36  1  0  0  0  0
 35 36  2  0  0  0  0
 37 38  1  0  0  0  0
 37 39  2  0  0  0  0
 38 40  2  0  0  0  0
 39 41  1  0  0  0  0
 40 42  1  0  0  0  0
 41 42  2  0  0  0  0
 43 44  1  0  0  0  0
 43 45  2  0  0  0  0
 44 46  2  0  0  0  0
 45 47  1  0  0  0  0
 46 48  1  0  0  0  0
 47 48  2  0  0  0  0
 49 50  1  0  0  0  0
 43 50  1  0  0  0  0
 38 50  1  0  0  0  0
 34 50  1  0  0  0  0
 49 51  1  0  0  0  0
 52 53  3  0  0  0  0
 49 52  1  0  0  0  0
 53 54  1  0  0  0  0
 25 54  1  0  0  0  0
 21 54  1  0  0  0  0
 17 54  1  0  0  0  0
 49 55  1  0  0  0  0
 56 57  1  0  0  0  0
 56 58  2  0  0  0  0
 57 59  2  0  0  0  0
 58 60  1  0  0  0  0
 59 61  1  0  0  0  0
 60 61  2  0  0  0  0
 55 56  1  0  0  0  0
 11 55  1  0  0  0  0
 62 63  1  0  0  0  0
 62 64  2  0  0  0  0
 63 65  2  0  0  0  0
 64 66  1  0  0  0  0
 65 67  1  0  0  0  0
 66 67  2  0  0  0  0
 55 67  1  0  0  0  0
 49 68  1  0  0  0  0
 69 70  1  0  0  0  0
 69 71  2  0  0  0  0
 70 72  2  0  0  0  0
 71 73  1  0  0  0  0
 72 74  1  0  0  0  0
 73 74  2  0  0  0  0
 68 69  1  0  0  0  0
 75 76  1  0  0  0  0
 75 77  2  0  0  0  0
 76 78  2  0  0  0  0
 77 79  1  0  0  0  0
 78 80  1  0  0  0  0
 79 80  2  0  0  0  0
 68 75  1  0  0  0  0
  1 68  1  0  0  0  0
M  END
> <NMREDATA_VERSION>
1.1

> <NMREDATA_LEVEL>
0

> <NMREDATA_SOLVENT>
CD2Cl2

> <NMREDATA_TEMPERATURE>
248

> <NMREDATA_FORMULA>
C73H64BNP2RhSn

> <NMREDATA_SMILES>
c1ccc(cc1)[B](c1ccccc1)(c1ccccc1)C#N[RhH]([Sn](c1ccccc1)(c1ccccc1)c1ccccc1)(P(c1ccccc1)(c1ccccc1)c1ccccc1)P(c1ccccc1)(c1ccccc1)c1ccccc1

> <NMREDATA_ASSIGNMENT>
Rh49, 120.00, 49

> <NMREDATA_1D_103Rh>
120.00, L=Rh49

$$$$

  ACD/LABS04012414372D

 74 82  0  0  0  0  0  0  0  0  1 V2000
    9.8369  -14.0131    0.0000 C    0  0  0  0  0  0  0  0  0  0  0  0
    9.8369  -15.3431    0.0000 C    0  0  0  0  0  0  0  0  0  0  0  0
    8.6850  -13.3481    0.0000 C    0  0  0  0  0  0  0  0  0  0  0  0
    8.6850  -16.0081    0.0000 C    0  0  0  0  0  0  0  0  0  0  0  0
    7.5332  -14.0131    0.0000 C    0  0  0  0  0  0  0  0  0  0  0  0
    7.5332  -15.3431    0.0000 C    0  0  0  0  0  0  0  0  0  0  0  0
   14.5799  -16.8101    0.0000 C    0  0  0  0  0  0  0  0  0  0  0  0
   15.2147  -17.9788    0.0000 C    0  0  0  0  0  0  0  0  0  0  0  0
   15.2746  -15.6760    0.0000 C    0  0  0  0  0  0  0  0  0  0  0  0
   16.5443  -18.0134    0.0000 C    0  0  0  0  0  0  0  0  0  0  0  0
   16.6042  -15.7106    0.0000 C    0  0  0  0  0  0  0  0  0  0  0  0
   17.2390  -16.8793    0.0000 C    0  0  0  0  0  0  0  0  0  0  0  0
   18.3984  -16.6007    0.0000 C    0  0  0  0  0  0  0  0  0  0  0  0
   19.5326  -17.2955    0.0000 C    0  0  0  0  0  0  0  0  0  0  0  0
   18.4330  -15.2712    0.0000 C    0  0  0  0  0  0  0  0  0  0  0  0
   20.7013  -16.6607    0.0000 C    0  0  0  0  0  0  0  0  0  0  0  0
   19.6017  -14.6364    0.0000 C    0  0  0  0  0  0  0  0  0  0  0  0
   20.7359  -15.3311    0.0000 C    0  0  0  0  0  0  0  0  0  0  0  0
   16.1648  -13.8817    0.0000 C    0  0  0  0  0  0  0  0  0  0  0  0
   16.1994  -12.5522    0.0000 C    0  0  0  0  0  0  0  0  0  0  0  0
   14.9960  -14.5165    0.0000 C    0  0  0  0  0  0  0  0  0  0  0  0
   15.0652  -11.8574    0.0000 C    0  0  0  0  0  0  0  0  0  0  0  0
   13.8619  -13.8218    0.0000 C    0  0  0  0  0  0  0  0  0  0  0  0
   13.8965  -12.4923    0.0000 C    0  0  0  0  0  0  0  0  0  0  0  0
   16.1825   -5.5844    0.0000 C    0  0  0  0  0  0  0  0  0  0  0  0
   16.1825   -6.9144    0.0000 C    0  0  0  0  0  0  0  0  0  0  0  0
   15.0305   -4.9194    0.0000 C    0  0  0  0  0  0  0  0  0  0  0  0
   15.0305   -7.5794    0.0000 C    0  0  0  0  0  0  0  0  0  0  0  0
   13.8788   -5.5844    0.0000 C    0  0  0  0  0  0  0  0  0  0  0  0
   13.8788   -6.9144    0.0000 C    0  0  0  0  0  0  0  0  0  0  0  0
   13.3462   -6.0010    0.0000 C    0  0  0  0  0  0  0  0  0  0  0  0
   13.3462   -7.3310    0.0000 C    0  0  0  0  0  0  0  0  0  0  0  0
   12.1943   -5.3360    0.0000 C    0  0  0  0  0  0  0  0  0  0  0  0
   12.1943   -7.9960    0.0000 C    0  0  0  0  0  0  0  0  0  0  0  0
   11.0425   -6.0010    0.0000 C    0  0  0  0  0  0  0  0  0  0  0  0
   11.0425   -7.3310    0.0000 C    0  0  0  0  0  0  0  0  0  0  0  0
   11.2951   -8.7411    0.0000 C    0  0  0  0  0  0  0  0  0  0  0  0
   11.2951  -10.0711    0.0000 C    0  0  0  0  0  0  0  0  0  0  0  0
   10.1432   -8.0761    0.0000 C    0  0  0  0  0  0  0  0  0  0  0  0
   10.1432  -10.7361    0.0000 C    0  0  0  0  0  0  0  0  0  0  0  0
    8.9914   -8.7411    0.0000 C    0  0  0  0  0  0  0  0  0  0  0  0
    8.9914  -10.0711    0.0000 C    0  0  0  0  0  0  0  0  0  0  0  0
   16.2645  -10.2394    0.0000 Rh   0  0  0  0  0  0  0  0  0  0  0  0
   14.4698   -8.8133    0.0000 P    0  0  0  0  0  0  0  0  0  0  0  0
   17.0657   -7.8198    0.0000 H    0  0  0  0  0  0  0  0  0  0  0  0
   17.2989  -11.3396    0.0000 N    0  0  0  0  0  0  0  0  0  0  0  0
   18.5096  -12.6000    0.0000 C    0  0  0  0  0  0  0  0  0  0  0  0
   17.2989  -14.5765    0.0000 B    0  0  0  0  0  0  0  0  0  0  0  0
   19.3571   -8.9895    0.0000 Sn   0  0  0  0  0  4  0  0  0  0  0  0
   11.5534  -12.8353    0.0000 P    0  0  0  0  0  0  0  0  0  0  0  0
   11.5268  -14.1650    0.0000 C    0  0  0  0  0  0  0  0  0  0  0  0
   12.6651  -14.8529    0.0000 C    0  0  0  0  0  0  0  0  0  0  0  0
   10.3619  -14.8070    0.0000 C    0  0  0  0  0  0  0  0  0  0  0  0
   12.6385  -16.1827    0.0000 C    0  0  0  0  0  0  0  0  0  0  0  0
   10.3353  -16.1367    0.0000 C    0  0  0  0  0  0  0  0  0  0  0  0
   11.4736  -16.8246    0.0000 C    0  0  0  0  0  0  0  0  0  0  0  0
   10.4151  -12.1474    0.0000 C    0  0  0  0  0  0  0  0  0  0  0  0
    9.2502  -12.7893    0.0000 C    0  0  0  0  0  0  0  0  0  0  0  0
   10.4416  -10.8176    0.0000 C    0  0  0  0  0  0  0  0  0  0  0  0
    8.1119  -12.1013    0.0000 C    0  0  0  0  0  0  0  0  0  0  0  0
    9.3033  -10.1298    0.0000 C    0  0  0  0  0  0  0  0  0  0  0  0
    8.1385  -10.7716    0.0000 C    0  0  0  0  0  0  0  0  0  0  0  0
   18.8141   -7.8824    0.0000 C    0  0  0  0  0  0  0  0  0  0  0  0
   19.4498   -6.8667    0.0000 C    0  0  0  0  0  0  0  0  0  0  0  0
   18.9394   -5.7764    0.0000 C    0  0  0  0  0  0  0  0  0  0  0  0
   19.6368   -4.7841    0.0000 C    0  0  0  0  0  0  0  0  0  0  0  0
   19.7636  -10.1569    0.0000 C    0  0  0  0  0  0  0  0  0  0  0  0
   20.8875  -10.4451    0.0000 C    0  0  0  0  0  0  0  0  0  0  0  0
   21.4975  -11.4467    0.0000 C    0  0  0  0  0  0  0  0  0  0  0  0
   22.7144  -11.4355    0.0000 C    0  0  0  0  0  0  0  0  0  0  0  0
   20.4370   -8.4135    0.0000 C    0  0  0  0  0  0  0  0  0  0  0  0
   21.4992   -8.8598    0.0000 C    0  0  0  0  0  0  0  0  0  0  0  0
   22.5880   -8.3990    0.0000 C    0  0  0  0  0  0  0  0  0  0  0  0
   23.5643   -9.1265    0.0000 C    0  0  0  0  0  0  0  0  0  0  0  0
  1  2  1  0  0  0  0
  1  3  2  0  0  0  0
  2  4  2  0  0  0  0
  3  5  1  0  0  0  0
  4  6  1  0  0  0  0
  5  6  2  0  0  0  0
  7  8  1  0  0  0  0
  7  9  2  0  0  0  0
  8 10  2  0  0  0  0
  9 11  1  0  0  0  0
 10 12  1  0  0  0  0
 11 12  2  0  0  0  0
 13 14  1  0  0  0  0
 13 15  2  0  0  0  0
 14 16  2  0  0  0  0
 15 17  1  0  0  0  0
 16 18  1  0  0  0  0
 17 18  2  0  0  0  0
 19 20  1  0  0  0  0
 19 21  2  0  0  0  0
 20 22  2  0  0  0  0
 21 23  1  0  0  0  0
 22 24  1  0  0  0  0
 23 24  2  0  0  0  0
 25 26  1  0  0  0  0
 25 27  2  0  0  0  0
 26 28  2  0  0  0  0
 27 29  1  0  0  0  0
 28 30  1  0  0  0  0
 29 30  2  0  0  0  0
 31 32  1  0  0  0  0
 31 33  2  0  0  0  0
 32 34  2  0  0  0  0
 33 35  1  0  0  0  0
 34 36  1  0  0  0  0
 35 36  2  0  0  0  0
 37 38  1  0  0  0  0
 37 39  2  0  0  0  0
 38 40  2  0  0  0  0
 39 41  1  0  0  0  0
 40 42  1  0  0  0  0
 41 42  2  0  0  0  0
 43 44  1  0  0  0  0
 37 44  1  0  0  0  0
 32 44  1  0  0  0  0
 28 44  1  0  0  0  0
 43 45  1  0  0  0  0
 46 47  3  0  0  0  0
 43 46  1  0  0  0  0
 47 48  1  0  0  0  0
 19 48  1  0  0  0  0
 15 48  1  0  0  0  0
 11 48  1  0  0  0  0
 43 49  1  0  0  0  0
 43 50  1  0  0  0  0
 51 52  1  0  0  0  0
 51 53  2  0  0  0  0
 52 54  2  0  0  0  0
 53 55  1  0  0  0  0
 54 56  1  0  0  0  0
 55 56  2  0  0  0  0
 50 51  1  0  0  0  0
 57 58  1  0  0  0  0
 57 59  2  0  0  0  0
 58 60  2  0  0  0  0
 59 61  1  0  0  0  0
 60 62  1  0  0  0  0
 61 62  2  0  0  0  0
 50 57  1  0  0  0  0
  1 50  1  0  0  0  0
 49 63  1  0  0  0  0
 63 64  1  0  0  0  0
 64 65  1  0  0  0  0
 65 66  1  0  0  0  0
 49 67  1  0  0  0  0
 67 68  1  0  0  0  0
 68 69  1  0  0  0  0
 69 70  1  0  0  0  0
 49 71  1  0  0  0  0
 71 72  1  0  0  0  0
 72 73  1  0  0  0  0
 73 74  1  0  0  0  0
M  END
> <NMREDATA_VERSION>
1.1

> <NMREDATA_LEVEL>
0

> <NMREDATA_SOLVENT>
CD2Cl2

> <NMREDATA_TEMPERATURE>
248

> <NMREDATA_FORMULA>
C67H76BNP2RhSn

> <NMREDATA_SMILES>
CCCC[Sn]([RhH](P(c1ccccc1)(c1ccccc1)c1ccccc1)(P(c1ccccc1)(c1ccccc1)c1ccccc1)N#C[B](c1ccccc1)(c1ccccc1)c1ccccc1)(CCCC)CCCC

> <NMREDATA_ASSIGNMENT>
Rh43, -132.00, 43

> <NMREDATA_1D_103Rh>
-132.00, L=Rh43

$$$$

  ACD/LABS04012414442D

 62 70  0  0  0  0  0  0  0  0  2 V2000
   15.4845  -13.5551    0.0000 B    0  0  0  0  0  0  0  0  0  0  0  0
   16.7878  -13.3243    0.0000 N    0  0  0  0  0  0  0  0  0  0  0  0
   17.5584  -14.4060    0.0000 C    0  0  0  0  0  0  0  0  0  0  0  0
   17.5584  -12.2519    0.0000 N    0  0  0  0  0  0  0  0  0  0  0  0
   18.8262  -13.9896    0.0000 C    0  0  0  0  0  0  0  0  0  0  0  0
   18.8262  -12.6596    0.0000 C    0  0  0  0  0  0  0  0  0  0  0  0
   14.1725  -13.7855    0.0000 N    0  0  0  0  0  0  0  0  0  0  0  0
   13.5875  -14.9823    0.0000 C    0  0  0  0  0  0  0  0  0  0  0  0
   13.2153  -12.8637    0.0000 N    0  0  0  0  0  0  0  0  0  0  0  0
   12.2667  -14.7962    0.0000 C    0  0  0  0  0  0  0  0  0  0  0  0
   12.0452  -13.4842    0.0000 C    0  0  0  0  0  0  0  0  0  0  0  0
   15.7061  -14.8671    0.0000 N    0  0  0  0  0  0  0  0  0  0  0  0
   16.9029  -15.4522    0.0000 C    0  0  0  0  0  0  0  0  0  0  0  0
   14.7843  -15.8244    0.0000 N    0  0  0  0  0  0  0  0  0  0  0  0
   16.7168  -16.7729    0.0000 C    0  0  0  0  0  0  0  0  0  0  0  0
   15.4048  -16.9945    0.0000 C    0  0  0  0  0  0  0  0  0  0  0  0
   10.8483  -12.8991    0.0000 C    0  0  0  0  0  0  0  0  0  0  0  0
   11.3445  -15.7447    0.0000 C    0  0  0  0  0  0  0  0  0  0  0  0
   14.8198  -18.1913    0.0000 C    0  0  0  0  0  0  0  0  0  0  0  0
   17.6649  -17.6952    0.0000 C    0  0  0  0  0  0  0  0  0  0  0  0
   19.8991  -11.8797    0.0000 C    0  0  0  0  0  0  0  0  0  0  0  0
   19.8991  -14.7782    0.0000 C    0  0  0  0  0  0  0  0  0  0  0  0
   15.3426   -8.3869    0.0000 C    0  0  0  0  0  0  0  0  0  0  0  0
   14.1905   -7.7134    0.0000 C    0  0  0  0  0  0  0  0  0  0  0  0
   16.4952   -7.7309    0.0000 C    0  0  0  0  0  0  0  0  0  0  0  0
   14.1993   -6.3834    0.0000 C    0  0  0  0  0  0  0  0  0  0  0  0
   16.5040   -6.4014    0.0000 C    0  0  0  0  0  0  0  0  0  0  0  0
   15.3519   -5.7274    0.0000 C    0  0  0  0  0  0  0  0  0  0  0  0
   23.4007  -13.9448    0.0000 C    0  0  0  0  0  0  0  0  0  0  0  0
   22.5406  -14.9643    0.0000 C    0  0  0  0  0  0  0  0  0  0  0  0
   22.9488  -12.6951    0.0000 C    0  0  0  0  0  0  0  0  0  0  0  0
   21.2286  -14.7252    0.0000 C    0  0  0  0  0  0  0  0  0  0  0  0
   21.6368  -12.4555    0.0000 C    0  0  0  0  0  0  0  0  0  0  0  0
   20.7855  -13.4750    0.0000 C    0  0  0  0  0  0  0  0  0  0  0  0
   15.2542  -12.2519    0.0000 Rh   0  5  0  0  0  0  0  0  0  0  0  0
   21.1931  -11.2149    0.0000 Sn   0  0  0  0  0  4  0  0  0  0  0  0
   19.4822   -8.1390    0.0000 C    0  0  0  0  0  0  0  0  0  0  0  0
   19.7130   -9.4510    0.0000 C    0  0  0  0  0  0  0  0  0  0  0  0
   20.5017   -7.2877    0.0000 C    0  0  0  0  0  0  0  0  0  0  0  0
   20.9628   -9.9117    0.0000 C    0  0  0  0  0  0  0  0  0  0  0  0
   21.7520   -7.7488    0.0000 C    0  0  0  0  0  0  0  0  0  0  0  0
   21.9823   -9.0521    0.0000 C    0  0  0  0  0  0  0  0  0  0  0  0
   25.1209  -10.5322    0.0000 C    0  0  0  0  0  0  0  0  0  0  0  0
   24.2695   -9.5127    0.0000 C    0  0  0  0  0  0  0  0  0  0  0  0
   24.6597  -11.7733    0.0000 C    0  0  0  0  0  0  0  0  0  0  0  0
   22.9575   -9.7436    0.0000 C    0  0  0  0  0  0  0  0  0  0  0  0
   23.3565  -12.0036    0.0000 C    0  0  0  0  0  0  0  0  0  0  0  0
   22.4964  -10.9933    0.0000 C    0  0  0  0  0  0  0  0  0  0  0  0
   13.0379   -8.3781    0.0000 P    0  0  0  0  0  0  0  0  0  0  0  0
   12.3819   -7.2168    0.0000 C    0  0  0  0  0  0  0  0  0  0  0  0
   11.0519   -7.2168    0.0000 C    0  0  0  0  0  0  0  0  0  0  0  0
   13.0466   -6.0734    0.0000 C    0  0  0  0  0  0  0  0  0  0  0  0
   10.3872   -6.0554    0.0000 C    0  0  0  0  0  0  0  0  0  0  0  0
   12.3906   -4.9208    0.0000 C    0  0  0  0  0  0  0  0  0  0  0  0
   11.0607   -4.9120    0.0000 C    0  0  0  0  0  0  0  0  0  0  0  0
   11.8853   -9.0341    0.0000 C    0  0  0  0  0  0  0  0  0  0  0  0
   11.8765  -10.3641    0.0000 C    0  0  0  0  0  0  0  0  0  0  0  0
   10.7327   -8.3606    0.0000 C    0  0  0  0  0  0  0  0  0  0  0  0
   10.7239  -11.0201    0.0000 C    0  0  0  0  0  0  0  0  0  0  0  0
    9.5806   -9.0254    0.0000 C    0  0  0  0  0  0  0  0  0  0  0  0
    9.5713  -10.3553    0.0000 C    0  0  0  0  0  0  0  0  0  0  0  0
   13.9422  -12.4735    0.0000 H    0  0  0  0  0  0  0  0  0  0  0  0
  2  3  1  0  0  0  0
  2  4  1  0  0  0  0
  3  5  2  0  0  0  0
  4  6  2  0  0  0  0
  5  6  1  0  0  0  0
  1  2  1  0  0  0  0
  7  8  1  0  0  0  0
  7  9  1  0  0  0  0
  8 10  2  0  0  0  0
  9 11  2  0  0  0  0
 10 11  1  0  0  0  0
  1  7  1  0  0  0  0
 12 13  1  0  0  0  0
 12 14  1  0  0  0  0
 13 15  2  0  0  0  0
 14 16  2  0  0  0  0
 15 16  1  0  0  0  0
  1 12  1  0  0  0  0
 11 17  1  0  0  0  0
 10 18  1  0  0  0  0
 16 19  1  0  0  0  0
 15 20  1  0  0  0  0
  6 21  1  0  0  0  0
  5 22  1  0  0  0  0
 23 24  1  0  0  0  0
 23 25  2  0  0  0  0
 24 26  2  0  0  0  0
 25 27  1  0  0  0  0
 26 28  1  0  0  0  0
 27 28  2  0  0  0  0
 29 30  1  0  0  0  0
 29 31  2  0  0  0  0
 30 32  2  0  0  0  0
 31 33  1  0  0  0  0
 32 34  1  0  0  0  0
 33 34  2  0  0  0  0
 35 36  1  0  0  0  0
 37 38  1  0  0  0  0
 37 39  2  0  0  0  0
 38 40  2  0  0  0  0
 39 41  1  0  0  0  0
 40 42  1  0  0  0  0
 41 42  2  0  0  0  0
 36 40  1  0  0  0  0
 43 44  1  0  0  0  0
 43 45  2  0  0  0  0
 44 46  2  0  0  0  0
 45 47  1  0  0  0  0
 46 48  1  0  0  0  0
 47 48  2  0  0  0  0
 36 48  1  0  0  0  0
 33 36  1  0  0  0  0
 35 49  1  0  0  0  0
 50 51  1  0  0  0  0
 50 52  2  0  0  0  0
 51 53  2  0  0  0  0
 52 54  1  0  0  0  0
 53 55  1  0  0  0  0
 54 55  2  0  0  0  0
 49 50  1  0  0  0  0
 56 57  1  0  0  0  0
 56 58  2  0  0  0  0
 57 59  2  0  0  0  0
 58 60  1  0  0  0  0
 59 61  1  0  0  0  0
 60 61  2  0  0  0  0
 49 56  1  0  0  0  0
 24 49  1  0  0  0  0
 35 62  1  0  0  0  0
  1 35  1  0  0  0  0
M  END
> <NMREDATA_VERSION>
1.1

> <NMREDATA_LEVEL>
0

> <NMREDATA_SOLVENT>
CD2Cl2

> <NMREDATA_TEMPERATURE>
300

> <NMREDATA_FORMULA>
C51H53BN6PRhSn

> <NMREDATA_SMILES>
Cc1nn(cc1C)[B]([RhH]([Sn](c1ccccc1)(c1ccccc1)c1ccccc1)P(c1ccccc1)(c1ccccc1)c1ccccc1)(n1nc(c(c1)C)C)n1nc(c(c1)C)C

> <NMREDATA_ASSIGNMENT>
Rh35, 1302.00, 35

> <NMREDATA_1D_103Rh>
1302.00, L=Rh35

$$$$

  ACD/LABS04012414482D

 65 73  0  0  0  0  0  0  0  0  2 V2000
   15.4845  -13.5551    0.0000 B    0  0  0  0  0  0  0  0  0  0  0  0
   16.7878  -13.3243    0.0000 N    0  0  0  0  0  0  0  0  0  0  0  0
   17.5584  -14.4060    0.0000 C    0  0  0  0  0  0  0  0  0  0  0  0
   17.5584  -12.2519    0.0000 N    0  0  0  0  0  0  0  0  0  0  0  0
   18.8262  -13.9896    0.0000 C    0  0  0  0  0  0  0  0  0  0  0  0
   18.8262  -12.6596    0.0000 C    0  0  0  0  0  0  0  0  0  0  0  0
   14.1725  -13.7855    0.0000 N    0  0  0  0  0  0  0  0  0  0  0  0
   13.5875  -14.9823    0.0000 C    0  0  0  0  0  0  0  0  0  0  0  0
   13.2153  -12.8637    0.0000 N    0  0  0  0  0  0  0  0  0  0  0  0
   12.2667  -14.7962    0.0000 C    0  0  0  0  0  0  0  0  0  0  0  0
   12.0452  -13.4842    0.0000 C    0  0  0  0  0  0  0  0  0  0  0  0
   15.7061  -14.8671    0.0000 N    0  0  0  0  0  0  0  0  0  0  0  0
   16.9029  -15.4522    0.0000 C    0  0  0  0  0  0  0  0  0  0  0  0
   14.7843  -15.8244    0.0000 N    0  0  0  0  0  0  0  0  0  0  0  0
   16.7168  -16.7729    0.0000 C    0  0  0  0  0  0  0  0  0  0  0  0
   15.4048  -16.9945    0.0000 C    0  0  0  0  0  0  0  0  0  0  0  0
   10.8483  -12.8991    0.0000 C    0  0  0  0  0  0  0  0  0  0  0  0
   11.3445  -15.7447    0.0000 C    0  0  0  0  0  0  0  0  0  0  0  0
   14.8198  -18.1913    0.0000 C    0  0  0  0  0  0  0  0  0  0  0  0
   17.6649  -17.6952    0.0000 C    0  0  0  0  0  0  0  0  0  0  0  0
   19.8991  -11.8797    0.0000 C    0  0  0  0  0  0  0  0  0  0  0  0
   19.8991  -14.7782    0.0000 C    0  0  0  0  0  0  0  0  0  0  0  0
   15.3426   -8.3869    0.0000 C    0  0  0  0  0  0  0  0  0  0  0  0
   14.1905   -7.7134    0.0000 C    0  0  0  0  0  0  0  0  0  0  0  0
   16.4952   -7.7309    0.0000 C    0  0  0  0  0  0  0  0  0  0  0  0
   14.1993   -6.3834    0.0000 C    0  0  0  0  0  0  0  0  0  0  0  0
   16.5040   -6.4014    0.0000 C    0  0  0  0  0  0  0  0  0  0  0  0
   15.3519   -5.7274    0.0000 C    0  0  0  0  0  0  0  0  0  0  0  0
   23.4007  -13.9448    0.0000 C    0  0  0  0  0  0  0  0  0  0  0  0
   22.5406  -14.9643    0.0000 C    0  0  0  0  0  0  0  0  0  0  0  0
   22.9488  -12.6951    0.0000 C    0  0  0  0  0  0  0  0  0  0  0  0
   21.2286  -14.7252    0.0000 C    0  0  0  0  0  0  0  0  0  0  0  0
   21.6368  -12.4555    0.0000 C    0  0  0  0  0  0  0  0  0  0  0  0
   20.7855  -13.4750    0.0000 C    0  0  0  0  0  0  0  0  0  0  0  0
   15.2542  -12.2519    0.0000 Rh   0  5  0  0  0  0  0  0  0  0  0  0
   21.1931  -11.2149    0.0000 Sn   0  0  0  0  0  4  0  0  0  0  0  0
   19.4822   -8.1390    0.0000 C    0  0  0  0  0  0  0  0  0  0  0  0
   19.7130   -9.4510    0.0000 C    0  0  0  0  0  0  0  0  0  0  0  0
   20.5017   -7.2877    0.0000 C    0  0  0  0  0  0  0  0  0  0  0  0
   20.9628   -9.9117    0.0000 C    0  0  0  0  0  0  0  0  0  0  0  0
   21.7520   -7.7488    0.0000 C    0  0  0  0  0  0  0  0  0  0  0  0
   21.9823   -9.0521    0.0000 C    0  0  0  0  0  0  0  0  0  0  0  0
   25.1209  -10.5322    0.0000 C    0  0  0  0  0  0  0  0  0  0  0  0
   24.2695   -9.5127    0.0000 C    0  0  0  0  0  0  0  0  0  0  0  0
   24.6597  -11.7733    0.0000 C    0  0  0  0  0  0  0  0  0  0  0  0
   22.9575   -9.7436    0.0000 C    0  0  0  0  0  0  0  0  0  0  0  0
   23.3565  -12.0036    0.0000 C    0  0  0  0  0  0  0  0  0  0  0  0
   22.4964  -10.9933    0.0000 C    0  0  0  0  0  0  0  0  0  0  0  0
   13.0379   -8.3781    0.0000 P    0  0  0  0  0  0  0  0  0  0  0  0
   12.3819   -7.2168    0.0000 C    0  0  0  0  0  0  0  0  0  0  0  0
   11.0519   -7.2168    0.0000 C    0  0  0  0  0  0  0  0  0  0  0  0
   13.0466   -6.0734    0.0000 C    0  0  0  0  0  0  0  0  0  0  0  0
   10.3872   -6.0554    0.0000 C    0  0  0  0  0  0  0  0  0  0  0  0
   12.3906   -4.9208    0.0000 C    0  0  0  0  0  0  0  0  0  0  0  0
   11.0607   -4.9120    0.0000 C    0  0  0  0  0  0  0  0  0  0  0  0
   11.8853   -9.0341    0.0000 C    0  0  0  0  0  0  0  0  0  0  0  0
   11.8765  -10.3641    0.0000 C    0  0  0  0  0  0  0  0  0  0  0  0
   10.7327   -8.3606    0.0000 C    0  0  0  0  0  0  0  0  0  0  0  0
   10.7239  -11.0201    0.0000 C    0  0  0  0  0  0  0  0  0  0  0  0
    9.5806   -9.0254    0.0000 C    0  0  0  0  0  0  0  0  0  0  0  0
    9.5713  -10.3553    0.0000 C    0  0  0  0  0  0  0  0  0  0  0  0
   13.9422  -12.4735    0.0000 H    0  0  0  0  0  0  0  0  0  0  0  0
    8.8613  -10.7361    0.0000 F    0  0  0  0  0  0  0  0  0  0  0  0
   10.8002   -4.1823    0.0000 F    0  0  0  0  0  0  0  0  0  0  0  0
   17.0657   -6.1372    0.0000 F    0  0  0  0  0  0  0  0  0  0  0  0
  2  3  1  0  0  0  0
  2  4  1  0  0  0  0
  3  5  2  0  0  0  0
  4  6  2  0  0  0  0
  5  6  1  0  0  0  0
  1  2  1  0  0  0  0
  7  8  1  0  0  0  0
  7  9  1  0  0  0  0
  8 10  2  0  0  0  0
  9 11  2  0  0  0  0
 10 11  1  0  0  0  0
  1  7  1  0  0  0  0
 12 13  1  0  0  0  0
 12 14  1  0  0  0  0
 13 15  2  0  0  0  0
 14 16  2  0  0  0  0
 15 16  1  0  0  0  0
  1 12  1  0  0  0  0
 11 17  1  0  0  0  0
 10 18  1  0  0  0  0
 16 19  1  0  0  0  0
 15 20  1  0  0  0  0
  6 21  1  0  0  0  0
  5 22  1  0  0  0  0
 23 24  1  0  0  0  0
 23 25  2  0  0  0  0
 24 26  2  0  0  0  0
 25 27  1  0  0  0  0
 26 28  1  0  0  0  0
 27 28  2  0  0  0  0
 29 30  1  0  0  0  0
 29 31  2  0  0  0  0
 30 32  2  0  0  0  0
 31 33  1  0  0  0  0
 32 34  1  0  0  0  0
 33 34  2  0  0  0  0
 35 36  1  0  0  0  0
 37 38  1  0  0  0  0
 37 39  2  0  0  0  0
 38 40  2  0  0  0  0
 39 41  1  0  0  0  0
 40 42  1  0  0  0  0
 41 42  2  0  0  0  0
 36 40  1  0  0  0  0
 43 44  1  0  0  0  0
 43 45  2  0  0  0  0
 44 46  2  0  0  0  0
 45 47  1  0  0  0  0
 46 48  1  0  0  0  0
 47 48  2  0  0  0  0
 36 48  1  0  0  0  0
 33 36  1  0  0  0  0
 35 49  1  0  0  0  0
 50 51  1  0  0  0  0
 50 52  2  0  0  0  0
 51 53  2  0  0  0  0
 52 54  1  0  0  0  0
 53 55  1  0  0  0  0
 54 55  2  0  0  0  0
 49 50  1  0  0  0  0
 56 57  1  0  0  0  0
 56 58  2  0  0  0  0
 57 59  2  0  0  0  0
 58 60  1  0  0  0  0
 59 61  1  0  0  0  0
 60 61  2  0  0  0  0
 49 56  1  0  0  0  0
 24 49  1  0  0  0  0
 35 62  1  0  0  0  0
  1 35  1  0  0  0  0
 61 63  1  0  0  0  0
 55 64  1  0  0  0  0
 27 65  1  0  0  0  0
M  END
> <NMREDATA_VERSION>
1.1

> <NMREDATA_LEVEL>
0

> <NMREDATA_SOLVENT>
CD2Cl2

> <NMREDATA_TEMPERATURE>
300

> <NMREDATA_FORMULA>
C51H50BF3N6PRhSn

> <NMREDATA_SMILES>
Fc1ccc(cc1)P([RhH]([B](n1nc(c(c1)C)C)(n1nc(c(c1)C)C)n1nc(c(c1)C)C)[Sn](c1ccccc1)(c1ccccc1)c1ccccc1)(c1ccc(cc1)F)c1ccc(cc1)F

> <NMREDATA_ASSIGNMENT>
Rh35, 1283.00, 35

> <NMREDATA_1D_103Rh>
1283.00, L=Rh35

$$$$

  ACD/LABS04012414512D

 75 82  0  0  0  0  0  0  0  0  2 V2000
   13.0095   -8.8596    0.0000 Rh   0  3  0  0  0  0  0  0  0  0  0  0
   11.8577   -8.1946    0.0000 H    0  0  0  0  0  0  0  0  0  0  0  0
   15.3132   -3.5396    0.0000 C    0  0  0  0  0  0  0  0  0  0  0  0
   15.3132   -4.8696    0.0000 C    0  0  0  0  0  0  0  0  0  0  0  0
   14.1614   -2.8746    0.0000 C    0  0  0  0  0  0  0  0  0  0  0  0
   14.1614   -5.5346    0.0000 C    0  0  0  0  0  0  0  0  0  0  0  0
   13.0095   -3.5396    0.0000 C    0  0  0  0  0  0  0  0  0  0  0  0
   13.0095   -4.8696    0.0000 C    0  0  0  0  0  0  0  0  0  0  0  0
   14.1614   -8.1946    0.0000 Au   0  5  0  0  0  0  0  0  0  0  0  0
   14.1614   -6.8646    0.0000 P    0  0  0  0  0  0  0  0  0  0  0  0
   15.4914   -6.8646    0.0000 C    0  0  0  0  0  0  0  0  0  0  0  0
   16.1564   -5.7128    0.0000 C    0  0  0  0  0  0  0  0  0  0  0  0
   16.1564   -8.0164    0.0000 C    0  0  0  0  0  0  0  0  0  0  0  0
   17.4864   -5.7128    0.0000 C    0  0  0  0  0  0  0  0  0  0  0  0
   17.4864   -8.0164    0.0000 C    0  0  0  0  0  0  0  0  0  0  0  0
   18.1514   -6.8646    0.0000 C    0  0  0  0  0  0  0  0  0  0  0  0
   12.8314   -6.8646    0.0000 C    0  0  0  0  0  0  0  0  0  0  0  0
   12.1664   -8.0164    0.0000 C    0  0  0  0  0  0  0  0  0  0  0  0
   12.1664   -5.7128    0.0000 C    0  0  0  0  0  0  0  0  0  0  0  0
   10.8364   -8.0164    0.0000 C    0  0  0  0  0  0  0  0  0  0  0  0
   10.8364   -5.7128    0.0000 C    0  0  0  0  0  0  0  0  0  0  0  0
   10.1714   -6.8646    0.0000 C    0  0  0  0  0  0  0  0  0  0  0  0
   13.0095  -11.5196    0.0000 C    0  0  0  0  0  0  0  0  0  0  0  0
   14.1614  -12.1846    0.0000 C    0  0  0  0  0  0  0  0  0  0  0  0
   14.1614  -13.5146    0.0000 P    0  0  0  0  0  0  0  0  0  0  0  0
   13.0095  -14.1796    0.0000 C    0  0  0  0  0  0  0  0  0  0  0  0
   13.0095  -15.5096    0.0000 C    0  0  0  0  0  0  0  0  0  0  0  0
   11.8577  -13.5146    0.0000 C    0  0  0  0  0  0  0  0  0  0  0  0
   11.8577  -16.1746    0.0000 C    0  0  0  0  0  0  0  0  0  0  0  0
   10.7059  -14.1796    0.0000 C    0  0  0  0  0  0  0  0  0  0  0  0
   10.7059  -15.5096    0.0000 C    0  0  0  0  0  0  0  0  0  0  0  0
   17.6168  -15.5096    0.0000 C    0  0  0  0  0  0  0  0  0  0  0  0
   16.4650  -16.1746    0.0000 C    0  0  0  0  0  0  0  0  0  0  0  0
   17.6168  -14.1796    0.0000 C    0  0  0  0  0  0  0  0  0  0  0  0
   15.3132  -15.5096    0.0000 C    0  0  0  0  0  0  0  0  0  0  0  0
   16.4650  -13.5146    0.0000 C    0  0  0  0  0  0  0  0  0  0  0  0
   15.3132  -14.1796    0.0000 C    0  0  0  0  0  0  0  0  0  0  0  0
   11.6795  -10.1896    0.0000 C    0  0  0  0  0  0  0  0  0  0  0  0
   11.0145   -9.0378    0.0000 C    0  0  0  0  0  0  0  0  0  0  0  0
    9.6845   -9.0378    0.0000 P    0  0  0  0  0  0  0  0  0  0  0  0
    9.0195   -7.8859    0.0000 C    0  0  0  0  0  0  0  0  0  0  0  0
    7.6895   -7.8859    0.0000 C    0  0  0  0  0  0  0  0  0  0  0  0
    9.6845   -6.7341    0.0000 C    0  0  0  0  0  0  0  0  0  0  0  0
    7.0245   -6.7341    0.0000 C    0  0  0  0  0  0  0  0  0  0  0  0
    9.0195   -5.5823    0.0000 C    0  0  0  0  0  0  0  0  0  0  0  0
    7.6895   -5.5823    0.0000 C    0  0  0  0  0  0  0  0  0  0  0  0
    7.6895  -12.4932    0.0000 C    0  0  0  0  0  0  0  0  0  0  0  0
    7.0245  -11.3414    0.0000 C    0  0  0  0  0  0  0  0  0  0  0  0
    9.0195  -12.4932    0.0000 C    0  0  0  0  0  0  0  0  0  0  0  0
    7.6895  -10.1896    0.0000 C    0  0  0  0  0  0  0  0  0  0  0  0
    9.6845  -11.3414    0.0000 C    0  0  0  0  0  0  0  0  0  0  0  0
    9.0195  -10.1896    0.0000 C    0  0  0  0  0  0  0  0  0  0  0  0
   13.0095  -10.1896    0.0000 N    0  3  0  0  0  0  0  0  0  0  0  0
   14.3395  -10.1896    0.0000 C    0  0  0  0  0  0  0  0  0  0  0  0
   15.0045  -11.3414    0.0000 C    0  0  0  0  0  0  0  0  0  0  0  0
   16.3345  -11.3414    0.0000 P    0  0  0  0  0  0  0  0  0  0  0  0
   16.9995  -12.4932    0.0000 C    0  0  0  0  0  0  0  0  0  0  0  0
   18.3295  -12.4932    0.0000 C    0  0  0  0  0  0  0  0  0  0  0  0
   16.3345  -13.6450    0.0000 C    0  0  0  0  0  0  0  0  0  0  0  0
   18.9946  -13.6450    0.0000 C    0  0  0  0  0  0  0  0  0  0  0  0
   16.9995  -14.7968    0.0000 C    0  0  0  0  0  0  0  0  0  0  0  0
   18.3295  -14.7968    0.0000 C    0  0  0  0  0  0  0  0  0  0  0  0
   18.3295   -7.8859    0.0000 C    0  0  0  0  0  0  0  0  0  0  0  0
   18.9946   -9.0378    0.0000 C    0  0  0  0  0  0  0  0  0  0  0  0
   16.9995   -7.8859    0.0000 C    0  0  0  0  0  0  0  0  0  0  0  0
   18.3295  -10.1896    0.0000 C    0  0  0  0  0  0  0  0  0  0  0  0
   16.3345   -9.0378    0.0000 C    0  0  0  0  0  0  0  0  0  0  0  0
   16.9995  -10.1896    0.0000 C    0  0  0  0  0  0  0  0  0  0  0  0
   26.9365   -9.4462    0.0000 P    0  5  0  0  0  0  0  0  0  0  0  0
   26.9365   -8.3566    0.0000 F    0  0  0  0  0  0  0  0  0  0  0  0
   25.9929   -8.9014    0.0000 F    0  0  0  0  0  0  0  0  0  0  0  0
   27.8802   -8.9014    0.0000 F    0  0  0  0  0  0  0  0  0  0  0  0
   27.8802   -9.9910    0.0000 F    0  0  0  0  0  0  0  0  0  0  0  0
   25.9929   -9.9910    0.0000 F    0  0  0  0  0  0  0  0  0  0  0  0
   26.9365  -10.5358    0.0000 F    0  0  0  0  0  0  0  0  0  0  0  0
  1  2  1  0  0  0  0
  3  4  1  0  0  0  0
  3  5  2  0  0  0  0
  4  6  2  0  0  0  0
  5  7  1  0  0  0  0
  6  8  1  0  0  0  0
  7  8  2  0  0  0  0
  9 10  1  0  0  0  0
 11 12  1  0  0  0  0
 11 13  2  0  0  0  0
 12 14  2  0  0  0  0
 13 15  1  0  0  0  0
 14 16  1  0  0  0  0
 15 16  2  0  0  0  0
 10 11  1  0  0  0  0
 17 18  1  0  0  0  0
 17 19  2  0  0  0  0
 18 20  2  0  0  0  0
 19 21  1  0  0  0  0
 20 22  1  0  0  0  0
 21 22  2  0  0  0  0
 10 17  1  0  0  0  0
  6 10  1  0  0  0  0
  1  9  1  0  0  0  0
 23 24  1  0  0  0  0
 24 25  1  0  0  0  0
 26 27  1  0  0  0  0
 26 28  2  0  0  0  0
 27 29  2  0  0  0  0
 28 30  1  0  0  0  0
 29 31  1  0  0  0  0
 30 31  2  0  0  0  0
 25 26  1  0  0  0  0
 32 33  1  0  0  0  0
 32 34  2  0  0  0  0
 33 35  2  0  0  0  0
 34 36  1  0  0  0  0
 35 37  1  0  0  0  0
 36 37  2  0  0  0  0
 25 37  1  0  0  0  0
 38 39  1  0  0  0  0
 39 40  1  0  0  0  0
 41 42  1  0  0  0  0
 41 43  2  0  0  0  0
 42 44  2  0  0  0  0
 43 45  1  0  0  0  0
 44 46  1  0  0  0  0
 45 46  2  0  0  0  0
 40 41  1  0  0  0  0
 47 48  1  0  0  0  0
 47 49  2  0  0  0  0
 48 50  2  0  0  0  0
 49 51  1  0  0  0  0
 50 52  1  0  0  0  0
 51 52  2  0  0  0  0
 40 52  1  0  0  0  0
 53 54  1  0  0  0  0
 54 55  1  0  0  0  0
 55 56  1  0  0  0  0
 57 58  1  0  0  0  0
 57 59  2  0  0  0  0
 58 60  2  0  0  0  0
 59 61  1  0  0  0  0
 60 62  1  0  0  0  0
 61 62  2  0  0  0  0
 56 57  1  0  0  0  0
 63 64  1  0  0  0  0
 63 65  2  0  0  0  0
 64 66  2  0  0  0  0
 65 67  1  0  0  0  0
 66 68  1  0  0  0  0
 67 68  2  0  0  0  0
 56 68  1  0  0  0  0
 38 53  1  0  0  0  0
 23 53  1  0  0  0  0
  1 53  1  0  0  0  0
 69 70  1  0  0  0  0
 69 71  1  0  0  0  0
 69 72  1  0  0  0  0
 69 73  1  0  0  0  0
 69 74  1  0  0  0  0
 69 75  1  0  0  0  0
M  END
> <NMREDATA_VERSION>
1.1

> <NMREDATA_LEVEL>
0

> <NMREDATA_SOLVENT>
acetone

> <NMREDATA_TEMPERATURE>
303

> <NMREDATA_FORMULA>
C60H60AuF6NP5Rh

> <NMREDATA_SMILES>
c1ccc(cc1)P(c1ccccc1)CCN([RhH][Au]P(c1ccccc1)(c1ccccc1)c1ccccc1)(CCP(c1ccccc1)c1ccccc1)CCP(c1ccccc1)c1ccccc1.F[P](F)(F)(F)(F)F

> <NMREDATA_ASSIGNMENT>
Rh1, -487.00, 1

> <NMREDATA_1D_103Rh>
-487.00, L=Rh1

$$$$

  ACD/LABS04012414522D

 75 82  0  0  0  0  0  0  0  0  2 V2000
   13.0095   -8.8596    0.0000 Rh   0  0  0  0  0  0  0  0  0  0  0  0
   11.8577   -8.1946    0.0000 H    0  0  0  0  0  0  0  0  0  0  0  0
   15.3132   -3.5396    0.0000 C    0  0  0  0  0  0  0  0  0  0  0  0
   15.3132   -4.8696    0.0000 C    0  0  0  0  0  0  0  0  0  0  0  0
   14.1614   -2.8746    0.0000 C    0  0  0  0  0  0  0  0  0  0  0  0
   14.1614   -5.5346    0.0000 C    0  0  0  0  0  0  0  0  0  0  0  0
   13.0095   -3.5396    0.0000 C    0  0  0  0  0  0  0  0  0  0  0  0
   13.0095   -4.8696    0.0000 C    0  0  0  0  0  0  0  0  0  0  0  0
   14.1614   -8.1946    0.0000 Au   0  3  0  0  0  0  0  0  0  0  0  0
   14.1614   -6.8646    0.0000 P    0  0  0  0  0  0  0  0  0  0  0  0
   15.4914   -6.8646    0.0000 C    0  0  0  0  0  0  0  0  0  0  0  0
   16.1564   -5.7128    0.0000 C    0  0  0  0  0  0  0  0  0  0  0  0
   16.1564   -8.0164    0.0000 C    0  0  0  0  0  0  0  0  0  0  0  0
   17.4864   -5.7128    0.0000 C    0  0  0  0  0  0  0  0  0  0  0  0
   17.4864   -8.0164    0.0000 C    0  0  0  0  0  0  0  0  0  0  0  0
   18.1514   -6.8646    0.0000 C    0  0  0  0  0  0  0  0  0  0  0  0
   12.8314   -6.8646    0.0000 C    0  0  0  0  0  0  0  0  0  0  0  0
   12.1664   -8.0164    0.0000 C    0  0  0  0  0  0  0  0  0  0  0  0
   12.1664   -5.7128    0.0000 C    0  0  0  0  0  0  0  0  0  0  0  0
   10.8364   -8.0164    0.0000 C    0  0  0  0  0  0  0  0  0  0  0  0
   10.8364   -5.7128    0.0000 C    0  0  0  0  0  0  0  0  0  0  0  0
   10.1714   -6.8646    0.0000 C    0  0  0  0  0  0  0  0  0  0  0  0
   13.0095  -11.5196    0.0000 C    0  0  0  0  0  0  0  0  0  0  0  0
   14.1614  -12.1846    0.0000 C    0  0  0  0  0  0  0  0  0  0  0  0
   14.1614  -13.5146    0.0000 P    0  0  0  0  0  0  0  0  0  0  0  0
   13.0095  -14.1796    0.0000 C    0  0  0  0  0  0  0  0  0  0  0  0
   13.0095  -15.5096    0.0000 C    0  0  0  0  0  0  0  0  0  0  0  0
   11.8577  -13.5146    0.0000 C    0  0  0  0  0  0  0  0  0  0  0  0
   11.8577  -16.1746    0.0000 C    0  0  0  0  0  0  0  0  0  0  0  0
   10.7059  -14.1796    0.0000 C    0  0  0  0  0  0  0  0  0  0  0  0
   10.7059  -15.5096    0.0000 C    0  0  0  0  0  0  0  0  0  0  0  0
   17.6168  -15.5096    0.0000 C    0  0  0  0  0  0  0  0  0  0  0  0
   16.4650  -16.1746    0.0000 C    0  0  0  0  0  0  0  0  0  0  0  0
   17.6168  -14.1796    0.0000 C    0  0  0  0  0  0  0  0  0  0  0  0
   15.3132  -15.5096    0.0000 C    0  0  0  0  0  0  0  0  0  0  0  0
   16.4650  -13.5146    0.0000 C    0  0  0  0  0  0  0  0  0  0  0  0
   15.3132  -14.1796    0.0000 C    0  0  0  0  0  0  0  0  0  0  0  0
   11.6795  -10.1896    0.0000 C    0  0  0  0  0  0  0  0  0  0  0  0
   11.0145   -9.0378    0.0000 C    0  0  0  0  0  0  0  0  0  0  0  0
    9.6845   -9.0378    0.0000 P    0  0  0  0  0  0  0  0  0  0  0  0
    9.0195   -7.8859    0.0000 C    0  0  0  0  0  0  0  0  0  0  0  0
    7.6895   -7.8859    0.0000 C    0  0  0  0  0  0  0  0  0  0  0  0
    9.6845   -6.7341    0.0000 C    0  0  0  0  0  0  0  0  0  0  0  0
    7.0245   -6.7341    0.0000 C    0  0  0  0  0  0  0  0  0  0  0  0
    9.0195   -5.5823    0.0000 C    0  0  0  0  0  0  0  0  0  0  0  0
    7.6895   -5.5823    0.0000 C    0  0  0  0  0  0  0  0  0  0  0  0
    7.6895  -12.4932    0.0000 C    0  0  0  0  0  0  0  0  0  0  0  0
    7.0245  -11.3414    0.0000 C    0  0  0  0  0  0  0  0  0  0  0  0
    9.0195  -12.4932    0.0000 C    0  0  0  0  0  0  0  0  0  0  0  0
    7.6895  -10.1896    0.0000 C    0  0  0  0  0  0  0  0  0  0  0  0
    9.6845  -11.3414    0.0000 C    0  0  0  0  0  0  0  0  0  0  0  0
    9.0195  -10.1896    0.0000 C    0  0  0  0  0  0  0  0  0  0  0  0
   13.0095  -10.1896    0.0000 P    0  0  0  0  0  0  0  0  0  0  0  0
   14.3395  -10.1896    0.0000 C    0  0  0  0  0  0  0  0  0  0  0  0
   15.0045  -11.3414    0.0000 C    0  0  0  0  0  0  0  0  0  0  0  0
   16.3345  -11.3414    0.0000 P    0  0  0  0  0  0  0  0  0  0  0  0
   16.9995  -12.4932    0.0000 C    0  0  0  0  0  0  0  0  0  0  0  0
   18.3295  -12.4932    0.0000 C    0  0  0  0  0  0  0  0  0  0  0  0
   16.3345  -13.6450    0.0000 C    0  0  0  0  0  0  0  0  0  0  0  0
   18.9946  -13.6450    0.0000 C    0  0  0  0  0  0  0  0  0  0  0  0
   16.9995  -14.7968    0.0000 C    0  0  0  0  0  0  0  0  0  0  0  0
   18.3295  -14.7968    0.0000 C    0  0  0  0  0  0  0  0  0  0  0  0
   18.3295   -7.8859    0.0000 C    0  0  0  0  0  0  0  0  0  0  0  0
   18.9946   -9.0378    0.0000 C    0  0  0  0  0  0  0  0  0  0  0  0
   16.9995   -7.8859    0.0000 C    0  0  0  0  0  0  0  0  0  0  0  0
   18.3295  -10.1896    0.0000 C    0  0  0  0  0  0  0  0  0  0  0  0
   16.3345   -9.0378    0.0000 C    0  0  0  0  0  0  0  0  0  0  0  0
   16.9995  -10.1896    0.0000 C    0  0  0  0  0  0  0  0  0  0  0  0
   26.9365   -9.4462    0.0000 P    0  5  0  0  0  0  0  0  0  0  0  0
   26.9365   -8.3566    0.0000 F    0  0  0  0  0  0  0  0  0  0  0  0
   25.9929   -8.9014    0.0000 F    0  0  0  0  0  0  0  0  0  0  0  0
   27.8802   -8.9014    0.0000 F    0  0  0  0  0  0  0  0  0  0  0  0
   27.8802   -9.9910    0.0000 F    0  0  0  0  0  0  0  0  0  0  0  0
   25.9929   -9.9910    0.0000 F    0  0  0  0  0  0  0  0  0  0  0  0
   26.9365  -10.5358    0.0000 F    0  0  0  0  0  0  0  0  0  0  0  0
  1  2  1  0  0  0  0
  3  4  1  0  0  0  0
  3  5  2  0  0  0  0
  4  6  2  0  0  0  0
  5  7  1  0  0  0  0
  6  8  1  0  0  0  0
  7  8  2  0  0  0  0
  9 10  1  0  0  0  0
 11 12  1  0  0  0  0
 11 13  2  0  0  0  0
 12 14  2  0  0  0  0
 13 15  1  0  0  0  0
 14 16  1  0  0  0  0
 15 16  2  0  0  0  0
 10 11  1  0  0  0  0
 17 18  1  0  0  0  0
 17 19  2  0  0  0  0
 18 20  2  0  0  0  0
 19 21  1  0  0  0  0
 20 22  1  0  0  0  0
 21 22  2  0  0  0  0
 10 17  1  0  0  0  0
  6 10  1  0  0  0  0
  1  9  1  0  0  0  0
 23 24  1  0  0  0  0
 24 25  1  0  0  0  0
 26 27  1  0  0  0  0
 26 28  2  0  0  0  0
 27 29  2  0  0  0  0
 28 30  1  0  0  0  0
 29 31  1  0  0  0  0
 30 31  2  0  0  0  0
 25 26  1  0  0  0  0
 32 33  1  0  0  0  0
 32 34  2  0  0  0  0
 33 35  2  0  0  0  0
 34 36  1  0  0  0  0
 35 37  1  0  0  0  0
 36 37  2  0  0  0  0
 25 37  1  0  0  0  0
 38 39  1  0  0  0  0
 39 40  1  0  0  0  0
 41 42  1  0  0  0  0
 41 43  2  0  0  0  0
 42 44  2  0  0  0  0
 43 45  1  0  0  0  0
 44 46  1  0  0  0  0
 45 46  2  0  0  0  0
 40 41  1  0  0  0  0
 47 48  1  0  0  0  0
 47 49  2  0  0  0  0
 48 50  2  0  0  0  0
 49 51  1  0  0  0  0
 50 52  1  0  0  0  0
 51 52  2  0  0  0  0
 40 52  1  0  0  0  0
 53 54  1  0  0  0  0
 54 55  1  0  0  0  0
 55 56  1  0  0  0  0
 57 58  1  0  0  0  0
 57 59  2  0  0  0  0
 58 60  2  0  0  0  0
 59 61  1  0  0  0  0
 60 62  1  0  0  0  0
 61 62  2  0  0  0  0
 56 57  1  0  0  0  0
 63 64  1  0  0  0  0
 63 65  2  0  0  0  0
 64 66  2  0  0  0  0
 65 67  1  0  0  0  0
 66 68  1  0  0  0  0
 67 68  2  0  0  0  0
 56 68  1  0  0  0  0
 38 53  1  0  0  0  0
 23 53  1  0  0  0  0
  1 53  1  0  0  0  0
 69 70  1  0  0  0  0
 69 71  1  0  0  0  0
 69 72  1  0  0  0  0
 69 73  1  0  0  0  0
 69 74  1  0  0  0  0
 69 75  1  0  0  0  0
M  END
> <NMREDATA_VERSION>
1.1

> <NMREDATA_LEVEL>
0

> <NMREDATA_SOLVENT>
CD2Cl2

> <NMREDATA_TEMPERATURE>
303

> <NMREDATA_FORMULA>
C60H60AuF6P6Rh

> <NMREDATA_SMILES>
c1ccc(cc1)P(c1ccccc1)CCP([RhH][Au]P(c1ccccc1)(c1ccccc1)c1ccccc1)(CCP(c1ccccc1)c1ccccc1)CCP(c1ccccc1)c1ccccc1.F[P](F)(F)(F)(F)F

> <NMREDATA_ASSIGNMENT>
Rh1, -1159.00, 1

> <NMREDATA_1D_103Rh>
-1159.00, L=Rh1

$$$$

  ACD/LABS04012414542D

 46 49  0  0  0  0  0  0  0  0  1 V2000
   14.7815  -10.5700    0.0000 C    0  0  0  0  0  0  0  0  0  0  0  0
   15.6800   -9.5904    0.0000 C    0  0  0  0  0  0  0  0  0  0  0  0
   15.2658   -8.3240    0.0000 O    0  0  0  0  0  0  0  0  0  0  0  0
   13.9816   -8.0315    0.0000 C    0  0  0  0  0  0  0  0  0  0  0  0
   14.7181  -11.8971    0.0000 P    0  0  0  0  0  0  0  0  0  0  0  0
   13.5732  -11.2267    0.0000 C    0  0  0  0  0  0  0  0  0  0  0  0
   13.5849   -9.8988    0.0000 C    0  0  0  0  0  0  0  0  0  0  0  0
   12.4169  -11.8840    0.0000 C    0  0  0  0  0  0  0  0  0  0  0  0
   12.4280   -9.2255    0.0000 C    0  0  0  0  0  0  0  0  0  0  0  0
   11.2720  -11.2136    0.0000 C    0  0  0  0  0  0  0  0  0  0  0  0
   11.2762   -9.8905    0.0000 C    0  0  0  0  0  0  0  0  0  0  0  0
   14.5783  -13.2160    0.0000 C    0  0  0  0  0  0  0  0  0  0  0  0
   15.6544  -13.9978    0.0000 C    0  0  0  0  0  0  0  0  0  0  0  0
   13.3632  -13.7537    0.0000 C    0  0  0  0  0  0  0  0  0  0  0  0
   15.5151  -15.3175    0.0000 C    0  0  0  0  0  0  0  0  0  0  0  0
   13.2239  -15.0734    0.0000 C    0  0  0  0  0  0  0  0  0  0  0  0
   14.3000  -15.8552    0.0000 C    0  0  0  0  0  0  0  0  0  0  0  0
   13.7264  -12.7871    0.0000 C    0  0  0  0  0  0  0  0  0  0  0  0
   12.3936  -12.8192    0.0000 C    0  0  0  0  0  0  0  0  0  0  0  0
   11.7684  -13.9892    0.0000 O    0  0  0  0  0  0  0  0  0  0  0  0
   10.4356  -14.0214    0.0000 C    0  0  0  0  0  0  0  0  0  0  0  0
   17.4873   -9.3867    0.0000 C    0  0  0  0  0  0  0  0  0  0  0  0
   17.7224   -8.0732    0.0000 C    0  0  0  0  0  0  0  0  0  0  0  0
   16.7056   -7.2167    0.0000 O    0  0  0  0  0  0  0  0  0  0  0  0
   16.9407   -5.9032    0.0000 C    0  0  0  0  0  0  0  0  0  0  0  0
   18.5044  -10.2436    0.0000 P    0  0  0  0  0  0  0  0  0  0  0  0
   19.8245  -10.3305    0.0000 C    0  0  0  0  0  0  0  0  0  0  0  0
   20.8977   -9.5471    0.0000 C    0  0  0  0  0  0  0  0  0  0  0  0
   19.9635  -11.6534    0.0000 C    0  0  0  0  0  0  0  0  0  0  0  0
   22.1147  -10.0939    0.0000 C    0  0  0  0  0  0  0  0  0  0  0  0
   21.1801  -12.2004    0.0000 C    0  0  0  0  0  0  0  0  0  0  0  0
   22.2537  -11.4168    0.0000 C    0  0  0  0  0  0  0  0  0  0  0  0
   19.5944   -7.5558    0.0000 C    0  0  0  0  0  0  0  0  0  0  0  0
   18.9752   -6.3770    0.0000 C    0  0  0  0  0  0  0  0  0  0  0  0
   20.9247   -7.6070    0.0000 C    0  0  0  0  0  0  0  0  0  0  0  0
   19.6789   -5.2543    0.0000 C    0  0  0  0  0  0  0  0  0  0  0  0
   21.6358   -6.4795    0.0000 C    0  0  0  0  0  0  0  0  0  0  0  0
   21.0087   -5.3054    0.0000 C    0  0  0  0  0  0  0  0  0  0  0  0
   18.3602  -11.5549    0.0000 C    0  0  0  0  0  0  0  0  0  0  0  0
   19.4363  -12.3367    0.0000 C    0  0  0  0  0  0  0  0  0  0  0  0
   19.2937  -13.6685    0.0000 O    0  0  0  0  0  0  0  0  0  0  0  0
   20.3696  -14.4499    0.0000 C    0  0  0  0  0  0  0  0  0  0  0  0
   16.0405  -11.7573    0.0000 Rh   0  0  0  0  0  0  0  0  0  0  0  0
   15.7294  -10.4734    0.0000 H    0  0  0  0  0  0  0  0  0  0  0  0
   17.0576  -12.6142    0.0000 Cl   0  0  0  0  0  0  0  0  0  0  0  0
   15.5344  -12.9917    0.0000 Cl   0  0  0  0  0  0  0  0  0  0  0  0
  1  2  1  0  0  0  0
  2  3  1  0  0  0  0
  3  4  1  0  0  0  0
  6  7  1  0  0  0  0
  6  8  1  0  0  0  0
  7  9  1  0  0  0  0
  8 10  1  0  0  0  0
  9 11  1  0  0  0  0
 10 11  1  0  0  0  0
  5  6  1  0  0  0  0
 12 13  1  0  0  0  0
 12 14  1  0  0  0  0
 13 15  1  0  0  0  0
 14 16  1  0  0  0  0
 15 17  1  0  0  0  0
 16 17  1  0  0  0  0
  5 12  1  0  0  0  0
  5 18  1  0  0  0  0
 18 19  1  0  0  0  0
 19 20  1  0  0  0  0
 20 21  1  0  0  0  0
  1  5  1  0  0  0  0
 22 23  1  0  0  0  0
 23 24  1  0  0  0  0
 24 25  1  0  0  0  0
 27 28  1  0  0  0  0
 27 29  1  0  0  0  0
 28 30  1  0  0  0  0
 29 31  1  0  0  0  0
 30 32  1  0  0  0  0
 31 32  1  0  0  0  0
 26 27  1  0  0  0  0
 33 34  1  0  0  0  0
 33 35  1  0  0  0  0
 34 36  1  0  0  0  0
 35 37  1  0  0  0  0
 36 38  1  0  0  0  0
 37 38  1  0  0  0  0
 26 33  1  0  0  0  0
 26 39  1  0  0  0  0
 39 40  1  0  0  0  0
 40 41  1  0  0  0  0
 41 42  1  0  0  0  0
 22 26  1  0  0  0  0
 43 44  1  0  0  0  0
 43 45  1  0  0  0  0
 43 46  1  0  0  0  0
 26 43  1  0  0  0  0
  5 43  1  0  0  0  0
M  END
> <NMREDATA_VERSION>
1.1

> <NMREDATA_LEVEL>
0

> <NMREDATA_SOLVENT>
CD2Cl2

> <NMREDATA_TEMPERATURE>
295

> <NMREDATA_FORMULA>
C36H73Cl2O4P2Rh

> <NMREDATA_SMILES>
COCCP([RhH](P(C1CCCCC1)(C1CCCCC1)(CCOC)CCOC)(Cl)Cl)(C1CCCCC1)(C1CCCCC1)CCOC

> <NMREDATA_ASSIGNMENT>
Rh43, 1287.00, 43

> <NMREDATA_1D_103Rh>
1287.00, L=Rh43

$$$$

  ACD/LABS04012414552D

 12 11  0  0  0  0  0  0  0  0  1 V2000
   16.6902  -10.8349    0.0000 P    0  0  0  0  0  0  0  0  0  0  0  0
   17.9201  -10.3366    0.0000 C    0  0  0  0  0  0  0  0  0  0  0  0
   15.4872  -10.2941    0.0000 C    0  0  0  0  0  0  0  0  0  0  0  0
   15.5328  -11.4568    0.0000 C    0  0  0  0  0  0  0  0  0  0  0  0
   15.8991  -13.1634    0.0000 C    0  0  0  0  0  0  0  0  0  0  0  0
   17.2218  -13.3025    0.0000 P    0  0  0  0  0  0  0  0  0  0  0  0
   18.5444  -13.4413    0.0000 C    0  0  0  0  0  0  0  0  0  0  0  0
   17.0827  -14.6252    0.0000 C    0  0  0  0  0  0  0  0  0  0  0  0
   17.3607  -11.9797    0.0000 Rh   0  0  0  0  0  0  0  0  0  0  0  0
   16.0569  -12.2510    0.0000 H    0  0  0  0  0  0  0  0  0  0  0  0
   18.5761  -12.5174    0.0000 Cl   0  0  0  0  0  0  0  0  0  0  0  0
   18.4028  -11.1683    0.0000 Cl   0  0  0  0  0  0  0  0  0  0  0  0
  1  2  1  0  0  0  0
  1  3  1  0  0  0  0
  1  4  1  0  0  0  0
  6  7  1  0  0  0  0
  6  8  1  0  0  0  0
  5  6  1  0  0  0  0
  9 10  1  0  0  0  0
  9 11  1  0  0  0  0
  9 12  1  0  0  0  0
  6  9  1  0  0  0  0
  1  9  1  0  0  0  0
M  END
> <NMREDATA_VERSION>
1.1

> <NMREDATA_LEVEL>
0

> <NMREDATA_SOLVENT>
CD2Cl2

> <NMREDATA_TEMPERATURE>
300

> <NMREDATA_FORMULA>
C6H21Cl2P2Rh

> <NMREDATA_SMILES>
CP([RhH](P(C)(C)C)(Cl)Cl)(C)C

> <NMREDATA_ASSIGNMENT>
Rh9, 892.00, 9

> <NMREDATA_1D_103Rh>
892.00, L=Rh9

$$$$

  ACD/LABS04012414572D

 27 29  0  0  0  0  0  0  0  0  1 V2000
   11.8240  -12.1758    0.0000 Rh   0  0  0  0  0  0  0  0  0  0  0  0
   11.8240  -10.8392    0.0000 B    0  0  0  0  0  0  0  0  0  0  0  0
   13.1603  -10.8392    0.0000 N    0  0  0  0  0  0  0  0  0  0  0  0
   13.9444  -11.9174    0.0000 C    0  0  0  0  0  0  0  0  0  0  0  0
   13.9444   -9.7704    0.0000 N    0  0  0  0  0  0  0  0  0  0  0  0
   15.2097  -11.5076    0.0000 C    0  0  0  0  0  0  0  0  0  0  0  0
   15.2097  -10.1803    0.0000 C    0  0  0  0  0  0  0  0  0  0  0  0
   11.8240   -9.5118    0.0000 N    0  0  0  0  0  0  0  0  0  0  0  0
   10.7460   -8.7280    0.0000 C    0  0  0  0  0  0  0  0  0  0  0  0
   12.9020   -8.7280    0.0000 N    0  0  0  0  0  0  0  0  0  0  0  0
   11.1558   -7.4537    0.0000 C    0  0  0  0  0  0  0  0  0  0  0  0
   12.4832   -7.4537    0.0000 C    0  0  0  0  0  0  0  0  0  0  0  0
   10.4964  -10.8392    0.0000 N    0  0  0  0  0  0  0  0  0  0  0  0
    9.7035   -9.7704    0.0000 C    0  0  0  0  0  0  0  0  0  0  0  0
    9.7035  -11.9174    0.0000 N    0  0  0  0  0  0  0  0  0  0  0  0
    8.4383  -10.1803    0.0000 C    0  0  0  0  0  0  0  0  0  0  0  0
    8.4383  -11.5076    0.0000 C    0  0  0  0  0  0  0  0  0  0  0  0
   10.3717   -6.3755    0.0000 C    0  0  0  0  0  0  0  0  0  0  0  0
   13.2763   -6.3755    0.0000 C    0  0  0  0  0  0  0  0  0  0  0  0
   16.2966  -12.2918    0.0000 C    0  0  0  0  0  0  0  0  0  0  0  0
   16.2966   -9.3961    0.0000 C    0  0  0  0  0  0  0  0  0  0  0  0
    7.3513   -9.3961    0.0000 C    0  0  0  0  0  0  0  0  0  0  0  0
    7.3513  -12.2918    0.0000 C    0  0  0  0  0  0  0  0  0  0  0  0
   13.1603  -12.1758    0.0000 H    0  0  0  0  0  0  0  0  0  0  0  0
   10.4964  -12.1758    0.0000 H    0  0  0  0  0  0  0  0  0  0  0  0
   11.8240  -13.5123    0.0000 H    0  0  0  0  0  0  0  0  0  0  0  0
   12.9732  -14.1808    0.0000 H    0  0  0  0  0  0  0  0  0  0  0  0
  3  4  1  0  0  0  0
  3  5  1  0  0  0  0
  4  6  2  0  0  0  0
  5  7  2  0  0  0  0
  6  7  1  0  0  0  0
  2  3  1  0  0  0  0
  8  9  1  0  0  0  0
  8 10  1  0  0  0  0
  9 11  2  0  0  0  0
 10 12  2  0  0  0  0
 11 12  1  0  0  0  0
  2  8  1  0  0  0  0
 13 14  1  0  0  0  0
 13 15  1  0  0  0  0
 14 16  2  0  0  0  0
 15 17  2  0  0  0  0
 16 17  1  0  0  0  0
  2 13  1  0  0  0  0
 11 18  1  0  0  0  0
 12 19  1  0  0  0  0
  6 20  1  0  0  0  0
  7 21  1  0  0  0  0
 16 22  1  0  0  0  0
 17 23  1  0  0  0  0
  1  2  1  0  0  0  0
  1 24  1  0  0  0  0
  1 25  1  0  0  0  0
  1 26  1  0  0  0  0
 26 27  1  0  0  0  0
M  END
> <NMREDATA_VERSION>
1.1

> <NMREDATA_LEVEL>
0

> <NMREDATA_SOLVENT>
DCCl3/CD2Cl2

> <NMREDATA_TEMPERATURE>
253

> <NMREDATA_FORMULA>
C15H24BN6Rh

> <NMREDATA_SMILES>
[H][H][RhH2][B](n1nc(c(c1)C)C)(n1nc(c(c1)C)C)n1nc(c(c1)C)C

> <NMREDATA_ASSIGNMENT>
Rh1, 809.00, 1

> <NMREDATA_1D_103Rh>
809.00, L=Rh1

$$$$

  ACD/LABS04012414582D

 27 29  0  0  0  0  0  0  0  0  1 V2000
   11.8240  -12.1758    0.0000 Rh   0  0  0  0  0  0  0  0  0  0  0  0
   11.8240  -10.8392    0.0000 B    0  0  0  0  0  0  0  0  0  0  0  0
   13.1603  -10.8392    0.0000 N    0  0  0  0  0  0  0  0  0  0  0  0
   13.9444  -11.9174    0.0000 C    0  0  0  0  0  0  0  0  0  0  0  0
   13.9444   -9.7704    0.0000 N    0  0  0  0  0  0  0  0  0  0  0  0
   15.2097  -11.5076    0.0000 C    0  0  0  0  0  0  0  0  0  0  0  0
   15.2097  -10.1803    0.0000 C    0  0  0  0  0  0  0  0  0  0  0  0
   11.8240   -9.5118    0.0000 N    0  0  0  0  0  0  0  0  0  0  0  0
   10.7460   -8.7280    0.0000 C    0  0  0  0  0  0  0  0  0  0  0  0
   12.9020   -8.7280    0.0000 N    0  0  0  0  0  0  0  0  0  0  0  0
   11.1558   -7.4537    0.0000 C    0  0  0  0  0  0  0  0  0  0  0  0
   12.4832   -7.4537    0.0000 C    0  0  0  0  0  0  0  0  0  0  0  0
   10.4964  -10.8392    0.0000 N    0  0  0  0  0  0  0  0  0  0  0  0
    9.7035   -9.7704    0.0000 C    0  0  0  0  0  0  0  0  0  0  0  0
    9.7035  -11.9174    0.0000 N    0  0  0  0  0  0  0  0  0  0  0  0
    8.4383  -10.1803    0.0000 C    0  0  0  0  0  0  0  0  0  0  0  0
    8.4383  -11.5076    0.0000 C    0  0  0  0  0  0  0  0  0  0  0  0
   10.3717   -6.3755    0.0000 C    0  0  0  0  0  0  0  0  0  0  0  0
   13.2763   -6.3755    0.0000 C    0  0  0  0  0  0  0  0  0  0  0  0
   16.2966  -12.2918    0.0000 C    0  0  0  0  0  0  0  0  0  0  0  0
   16.2966   -9.3961    0.0000 C    0  0  0  0  0  0  0  0  0  0  0  0
    7.3513   -9.3961    0.0000 C    0  0  0  0  0  0  0  0  0  0  0  0
    7.3513  -12.2918    0.0000 C    0  0  0  0  0  0  0  0  0  0  0  0
   13.1603  -12.1758    0.0000 H    0  0  0  0  0  0  0  0  0  0  0  0
   10.4964  -12.1758    0.0000 H    0  0  0  0  0  0  0  0  0  0  0  0
   11.8240  -13.5123    0.0000 H    0  0  0  0  0  0  0  0  0  0  0  0
   12.9732  -14.1808    0.0000 H    0  0  0  0  0  0  0  0  0  0  0  0
  3  4  1  0  0  0  0
  3  5  1  0  0  0  0
  4  6  2  0  0  0  0
  5  7  2  0  0  0  0
  6  7  1  0  0  0  0
  2  3  1  0  0  0  0
  8  9  1  0  0  0  0
  8 10  1  0  0  0  0
  9 11  2  0  0  0  0
 10 12  2  0  0  0  0
 11 12  1  0  0  0  0
  2  8  1  0  0  0  0
 13 14  1  0  0  0  0
 13 15  1  0  0  0  0
 14 16  2  0  0  0  0
 15 17  2  0  0  0  0
 16 17  1  0  0  0  0
  2 13  1  0  0  0  0
 11 18  1  0  0  0  0
 12 19  1  0  0  0  0
  6 20  1  0  0  0  0
  7 21  1  0  0  0  0
 16 22  1  0  0  0  0
 17 23  1  0  0  0  0
  1  2  1  0  0  0  0
  1 24  1  0  0  0  0
  1 25  1  0  0  0  0
  1 26  1  0  0  0  0
 26 27  1  0  0  0  0
M  END
> <NMREDATA_VERSION>
1.1

> <NMREDATA_LEVEL>
0

> <NMREDATA_SOLVENT>
DCCl3/CD2Cl2

> <NMREDATA_TEMPERATURE>
253

> <NMREDATA_FORMULA>
C15H24BN6Rh

> <NMREDATA_SMILES>
[H][H][RhH2][B](n1nc(c(c1)C)C)(n1nc(c(c1)C)C)n1nc(c(c1)C)C

> <NMREDATA_ASSIGNMENT>
Rh1, 796.00, 1

> <NMREDATA_1D_103Rh>
796.00, L=Rh1

$$$$

  ACD/LABS04012414582D

 27 29  0  0  0  0  0  0  0  0  1 V2000
   11.8240  -12.1758    0.0000 Rh   0  0  0  0  0  0  0  0  0  0  0  0
   11.8240  -10.8392    0.0000 B    0  0  0  0  0  0  0  0  0  0  0  0
   13.1603  -10.8392    0.0000 N    0  0  0  0  0  0  0  0  0  0  0  0
   13.9444  -11.9174    0.0000 C    0  0  0  0  0  0  0  0  0  0  0  0
   13.9444   -9.7704    0.0000 N    0  0  0  0  0  0  0  0  0  0  0  0
   15.2097  -11.5076    0.0000 C    0  0  0  0  0  0  0  0  0  0  0  0
   15.2097  -10.1803    0.0000 C    0  0  0  0  0  0  0  0  0  0  0  0
   11.8240   -9.5118    0.0000 N    0  0  0  0  0  0  0  0  0  0  0  0
   10.7460   -8.7280    0.0000 C    0  0  0  0  0  0  0  0  0  0  0  0
   12.9020   -8.7280    0.0000 N    0  0  0  0  0  0  0  0  0  0  0  0
   11.1558   -7.4537    0.0000 C    0  0  0  0  0  0  0  0  0  0  0  0
   12.4832   -7.4537    0.0000 C    0  0  0  0  0  0  0  0  0  0  0  0
   10.4964  -10.8392    0.0000 N    0  0  0  0  0  0  0  0  0  0  0  0
    9.7035   -9.7704    0.0000 C    0  0  0  0  0  0  0  0  0  0  0  0
    9.7035  -11.9174    0.0000 N    0  0  0  0  0  0  0  0  0  0  0  0
    8.4383  -10.1803    0.0000 C    0  0  0  0  0  0  0  0  0  0  0  0
    8.4383  -11.5076    0.0000 C    0  0  0  0  0  0  0  0  0  0  0  0
   10.3717   -6.3755    0.0000 C    0  0  0  0  0  0  0  0  0  0  0  0
   13.2763   -6.3755    0.0000 C    0  0  0  0  0  0  0  0  0  0  0  0
   16.2966  -12.2918    0.0000 C    0  0  0  0  0  0  0  0  0  0  0  0
   16.2966   -9.3961    0.0000 C    0  0  0  0  0  0  0  0  0  0  0  0
    7.3513   -9.3961    0.0000 C    0  0  0  0  0  0  0  0  0  0  0  0
    7.3513  -12.2918    0.0000 C    0  0  0  0  0  0  0  0  0  0  0  0
   13.1603  -12.1758    0.0000 H    0  0  0  0  0  0  0  0  0  0  0  0
   10.4964  -12.1758    0.0000 H    0  0  0  0  0  0  0  0  0  0  0  0
   11.8240  -13.5123    0.0000 H    0  0  0  0  0  0  0  0  0  0  0  0
   12.9732  -14.1808    0.0000 H    0  0  0  0  0  0  0  0  0  0  0  0
  3  4  1  0  0  0  0
  3  5  1  0  0  0  0
  4  6  2  0  0  0  0
  5  7  2  0  0  0  0
  6  7  1  0  0  0  0
  2  3  1  0  0  0  0
  8  9  1  0  0  0  0
  8 10  1  0  0  0  0
  9 11  2  0  0  0  0
 10 12  2  0  0  0  0
 11 12  1  0  0  0  0
  2  8  1  0  0  0  0
 13 14  1  0  0  0  0
 13 15  1  0  0  0  0
 14 16  2  0  0  0  0
 15 17  2  0  0  0  0
 16 17  1  0  0  0  0
  2 13  1  0  0  0  0
 11 18  1  0  0  0  0
 12 19  1  0  0  0  0
  6 20  1  0  0  0  0
  7 21  1  0  0  0  0
 16 22  1  0  0  0  0
 17 23  1  0  0  0  0
  1  2  1  0  0  0  0
  1 24  1  0  0  0  0
  1 25  1  0  0  0  0
  1 26  1  0  0  0  0
 26 27  1  0  0  0  0
M  END
> <NMREDATA_VERSION>
1.1

> <NMREDATA_LEVEL>
0

> <NMREDATA_SOLVENT>
DCCl3/CD2Cl2

> <NMREDATA_TEMPERATURE>
253

> <NMREDATA_FORMULA>
C15H24BN6Rh

> <NMREDATA_SMILES>
[H][H][RhH2][B](n1nc(c(c1)C)C)(n1nc(c(c1)C)C)n1nc(c(c1)C)C

> <NMREDATA_ASSIGNMENT>
Rh1, 785.00, 1

> <NMREDATA_1D_103Rh>
785.00, L=Rh1

$$$$

  ACD/LABS04012414582D

 27 29  0  0  0  0  0  0  0  0  1 V2000
   11.8240  -12.1758    0.0000 Rh   0  0  0  0  0  0  0  0  0  0  0  0
   11.8240  -10.8392    0.0000 B    0  0  0  0  0  0  0  0  0  0  0  0
   13.1603  -10.8392    0.0000 N    0  0  0  0  0  0  0  0  0  0  0  0
   13.9444  -11.9174    0.0000 C    0  0  0  0  0  0  0  0  0  0  0  0
   13.9444   -9.7704    0.0000 N    0  0  0  0  0  0  0  0  0  0  0  0
   15.2097  -11.5076    0.0000 C    0  0  0  0  0  0  0  0  0  0  0  0
   15.2097  -10.1803    0.0000 C    0  0  0  0  0  0  0  0  0  0  0  0
   11.8240   -9.5118    0.0000 N    0  0  0  0  0  0  0  0  0  0  0  0
   10.7460   -8.7280    0.0000 C    0  0  0  0  0  0  0  0  0  0  0  0
   12.9020   -8.7280    0.0000 N    0  0  0  0  0  0  0  0  0  0  0  0
   11.1558   -7.4537    0.0000 C    0  0  0  0  0  0  0  0  0  0  0  0
   12.4832   -7.4537    0.0000 C    0  0  0  0  0  0  0  0  0  0  0  0
   10.4964  -10.8392    0.0000 N    0  0  0  0  0  0  0  0  0  0  0  0
    9.7035   -9.7704    0.0000 C    0  0  0  0  0  0  0  0  0  0  0  0
    9.7035  -11.9174    0.0000 N    0  0  0  0  0  0  0  0  0  0  0  0
    8.4383  -10.1803    0.0000 C    0  0  0  0  0  0  0  0  0  0  0  0
    8.4383  -11.5076    0.0000 C    0  0  0  0  0  0  0  0  0  0  0  0
   10.3717   -6.3755    0.0000 C    0  0  0  0  0  0  0  0  0  0  0  0
   13.2763   -6.3755    0.0000 C    0  0  0  0  0  0  0  0  0  0  0  0
   16.2966  -12.2918    0.0000 C    0  0  0  0  0  0  0  0  0  0  0  0
   16.2966   -9.3961    0.0000 C    0  0  0  0  0  0  0  0  0  0  0  0
    7.3513   -9.3961    0.0000 C    0  0  0  0  0  0  0  0  0  0  0  0
    7.3513  -12.2918    0.0000 C    0  0  0  0  0  0  0  0  0  0  0  0
   13.1603  -12.1758    0.0000 H    0  0  0  0  0  0  0  0  0  0  0  0
   10.4964  -12.1758    0.0000 H    0  0  0  0  0  0  0  0  0  0  0  0
   11.8240  -13.5123    0.0000 H    0  0  0  0  0  0  0  0  0  0  0  0
   12.9732  -14.1808    0.0000 H    0  0  0  0  0  0  0  0  0  0  0  0
  3  4  1  0  0  0  0
  3  5  1  0  0  0  0
  4  6  2  0  0  0  0
  5  7  2  0  0  0  0
  6  7  1  0  0  0  0
  2  3  1  0  0  0  0
  8  9  1  0  0  0  0
  8 10  1  0  0  0  0
  9 11  2  0  0  0  0
 10 12  2  0  0  0  0
 11 12  1  0  0  0  0
  2  8  1  0  0  0  0
 13 14  1  0  0  0  0
 13 15  1  0  0  0  0
 14 16  2  0  0  0  0
 15 17  2  0  0  0  0
 16 17  1  0  0  0  0
  2 13  1  0  0  0  0
 11 18  1  0  0  0  0
 12 19  1  0  0  0  0
  6 20  1  0  0  0  0
  7 21  1  0  0  0  0
 16 22  1  0  0  0  0
 17 23  1  0  0  0  0
  1  2  1  0  0  0  0
  1 24  1  0  0  0  0
  1 25  1  0  0  0  0
  1 26  1  0  0  0  0
 26 27  1  0  0  0  0
M  END
> <NMREDATA_VERSION>
1.1

> <NMREDATA_LEVEL>
0

> <NMREDATA_SOLVENT>
DCCl3/CD2Cl2

> <NMREDATA_TEMPERATURE>
253

> <NMREDATA_FORMULA>
C15H24BN6Rh

> <NMREDATA_SMILES>
[H][H][RhH2][B](n1nc(c(c1)C)C)(n1nc(c(c1)C)C)n1nc(c(c1)C)C

> <NMREDATA_ASSIGNMENT>
Rh1, 775.00, 1

> <NMREDATA_1D_103Rh>
775.00, L=Rh1

$$$$

  ACD/LABS04012415002D

 47 52  0  0  0  0  0  0  0  0  1 V2000
   14.3173  -18.7655    0.0000 C    0  0  0  0  0  0  0  0  0  0  0  0
   15.0247  -19.8918    0.0000 C    0  0  0  0  0  0  0  0  0  0  0  0
   14.7569  -17.5102    0.0000 C    0  0  0  0  0  0  0  0  0  0  0  0
   16.3463  -20.0410    0.0000 C    0  0  0  0  0  0  0  0  0  0  0  0
   16.0124  -17.0713    0.0000 C    0  0  0  0  0  0  0  0  0  0  0  0
   17.1384  -17.7791    0.0000 C    0  0  0  0  0  0  0  0  0  0  0  0
   17.2869  -19.1008    0.0000 C    0  0  0  0  0  0  0  0  0  0  0  0
   11.8240  -12.1758    0.0000 Rh   0  0  0  0  0  0  0  0  0  0  0  0
   11.8240  -10.8392    0.0000 B    0  0  0  0  0  0  0  0  0  0  0  0
   13.1603  -10.8392    0.0000 N    0  0  0  0  0  0  0  0  0  0  0  0
   13.9444  -11.9174    0.0000 C    0  0  0  0  0  0  0  0  0  0  0  0
   13.9444   -9.7704    0.0000 N    0  0  0  0  0  0  0  0  0  0  0  0
   15.2097  -11.5076    0.0000 C    0  0  0  0  0  0  0  0  0  0  0  0
   15.2097  -10.1803    0.0000 C    0  0  0  0  0  0  0  0  0  0  0  0
   11.8240   -9.5118    0.0000 N    0  0  0  0  0  0  0  0  0  0  0  0
   10.7460   -8.7280    0.0000 C    0  0  0  0  0  0  0  0  0  0  0  0
   12.9020   -8.7280    0.0000 N    0  0  0  0  0  0  0  0  0  0  0  0
   11.1558   -7.4537    0.0000 C    0  0  0  0  0  0  0  0  0  0  0  0
   12.4832   -7.4537    0.0000 C    0  0  0  0  0  0  0  0  0  0  0  0
   10.4964  -10.8392    0.0000 N    0  0  0  0  0  0  0  0  0  0  0  0
    9.7035   -9.7704    0.0000 C    0  0  0  0  0  0  0  0  0  0  0  0
    9.7035  -11.9174    0.0000 N    0  0  0  0  0  0  0  0  0  0  0  0
    8.4383  -10.1803    0.0000 C    0  0  0  0  0  0  0  0  0  0  0  0
    8.4383  -11.5076    0.0000 C    0  0  0  0  0  0  0  0  0  0  0  0
   10.3717   -6.3755    0.0000 C    0  0  0  0  0  0  0  0  0  0  0  0
   13.2763   -6.3755    0.0000 C    0  0  0  0  0  0  0  0  0  0  0  0
   16.2966  -12.2918    0.0000 C    0  0  0  0  0  0  0  0  0  0  0  0
   16.2966   -9.3961    0.0000 C    0  0  0  0  0  0  0  0  0  0  0  0
    7.3513   -9.3961    0.0000 C    0  0  0  0  0  0  0  0  0  0  0  0
    7.3513  -12.2918    0.0000 C    0  0  0  0  0  0  0  0  0  0  0  0
   10.5759  -12.8353    0.0000 O    0  0  0  0  0  0  0  0  0  0  0  0
   10.2714  -13.9890    0.0000 O    0  0  0  0  0  0  0  0  0  0  0  0
   13.8167  -16.5696    0.0000 P    0  0  0  0  0  0  0  0  0  0  0  0
   16.0126  -16.0689    0.0000 C    0  0  0  0  0  0  0  0  0  0  0  0
   17.1389  -15.3616    0.0000 C    0  0  0  0  0  0  0  0  0  0  0  0
   14.7574  -15.6293    0.0000 C    0  0  0  0  0  0  0  0  0  0  0  0
   17.2882  -14.0400    0.0000 C    0  0  0  0  0  0  0  0  0  0  0  0
   14.3184  -14.3739    0.0000 C    0  0  0  0  0  0  0  0  0  0  0  0
   15.0263  -13.2479    0.0000 C    0  0  0  0  0  0  0  0  0  0  0  0
   16.3479  -13.0993    0.0000 C    0  0  0  0  0  0  0  0  0  0  0  0
   11.6207  -17.0702    0.0000 C    0  0  0  0  0  0  0  0  0  0  0  0
   10.4944  -17.7775    0.0000 C    0  0  0  0  0  0  0  0  0  0  0  0
   12.8760  -17.5098    0.0000 C    0  0  0  0  0  0  0  0  0  0  0  0
   10.3452  -19.0991    0.0000 C    0  0  0  0  0  0  0  0  0  0  0  0
   13.3150  -18.7653    0.0000 C    0  0  0  0  0  0  0  0  0  0  0  0
   12.6071  -19.8912    0.0000 C    0  0  0  0  0  0  0  0  0  0  0  0
   11.2854  -20.0398    0.0000 C    0  0  0  0  0  0  0  0  0  0  0  0
  1  2  2  0  0  0  0
  1  3  1  0  0  0  0
  2  4  1  0  0  0  0
  3  5  1  0  0  0  0
  4  7  2  0  0  0  0
  5  6  2  0  0  0  0
  6  7  1  0  0  0  0
 10 11  1  0  0  0  0
 10 12  1  0  0  0  0
 11 13  2  0  0  0  0
 12 14  2  0  0  0  0
 13 14  1  0  0  0  0
  9 10  1  0  0  0  0
 15 16  1  0  0  0  0
 15 17  1  0  0  0  0
 16 18  2  0  0  0  0
 17 19  2  0  0  0  0
 18 19  1  0  0  0  0
  9 15  1  0  0  0  0
 20 21  1  0  0  0  0
 20 22  1  0  0  0  0
 21 23  2  0  0  0  0
 22 24  2  0  0  0  0
 23 24  1  0  0  0  0
  9 20  1  0  0  0  0
 18 25  1  0  0  0  0
 19 26  1  0  0  0  0
 13 27  1  0  0  0  0
 14 28  1  0  0  0  0
 23 29  1  0  0  0  0
 24 30  1  0  0  0  0
  8  9  1  0  0  0  0
  8 31  1  0  0  0  0
 31 32  2  0  0  0  0
  8 33  1  0  0  0  0
 34 35  2  0  0  0  0
 34 36  1  0  0  0  0
 35 37  1  0  0  0  0
 36 38  1  0  0  0  0
 37 40  2  0  0  0  0
 38 39  2  0  0  0  0
 39 40  1  0  0  0  0
 33 36  1  0  0  0  0
 41 42  2  0  0  0  0
 41 43  1  0  0  0  0
 42 44  1  0  0  0  0
 43 45  1  0  0  0  0
 44 47  2  0  0  0  0
 45 46  2  0  0  0  0
 46 47  1  0  0  0  0
 33 43  1  0  0  0  0
  3 33  1  0  0  0  0
M  END
> <NMREDATA_VERSION>
1.1

> <NMREDATA_LEVEL>
0

> <NMREDATA_SOLVENT>
C6D6

> <NMREDATA_FORMULA>
C36H43BN6O2PRh

> <NMREDATA_SMILES>
O=[O][Rh]([B](n1nc(c(c1)C)C)(n1nc(c(c1)C)C)n1nc(c(c1)C)C)P(C1C=CC=CC=C1)(C1C=CC=CC=C1)C1C=CC=CC=C1

> <NMREDATA_ASSIGNMENT>
Rh8, 4540.00, 8

> <NMREDATA_1D_103Rh>
4540.00, L=Rh8

$$$$

  ACD/LABS04012415062D

 63 71  0  0  0  0  0  0  0  0  2 V2000
   15.8950   -9.8564    0.0000 C    0  0  0  0  0  0  0  0  0  0  0  0
   17.1822  -10.1799    0.0000 C    0  0  0  0  0  0  0  0  0  0  0  0
   14.9712  -10.8178    0.0000 C    0  0  0  0  0  0  0  0  0  0  0  0
   17.5623  -11.4538    0.0000 C    0  0  0  0  0  0  0  0  0  0  0  0
   15.3472  -12.0997    0.0000 C    0  0  0  0  0  0  0  0  0  0  0  0
   16.6389  -12.4155    0.0000 C    0  0  0  0  0  0  0  0  0  0  0  0
   12.3601  -10.6411    0.0000 C    0  0  0  0  0  0  0  0  0  0  0  0
   11.5786   -9.5655    0.0000 C    0  0  0  0  0  0  0  0  0  0  0  0
   11.8225  -11.8561    0.0000 C    0  0  0  0  0  0  0  0  0  0  0  0
   10.2596   -9.7049    0.0000 C    0  0  0  0  0  0  0  0  0  0  0  0
   10.4912  -11.9988    0.0000 C    0  0  0  0  0  0  0  0  0  0  0  0
    9.7098  -10.9232    0.0000 C    0  0  0  0  0  0  0  0  0  0  0  0
   13.5874  -11.8310    0.0000 C    0  0  0  0  0  0  0  0  0  0  0  0
   14.6950  -12.5727    0.0000 C    0  0  0  0  0  0  0  0  0  0  0  0
   12.4007  -12.4150    0.0000 C    0  0  0  0  0  0  0  0  0  0  0  0
   14.6033  -13.9020    0.0000 C    0  0  0  0  0  0  0  0  0  0  0  0
   12.3090  -13.7443    0.0000 C    0  0  0  0  0  0  0  0  0  0  0  0
   13.4088  -14.4814    0.0000 C    0  0  0  0  0  0  0  0  0  0  0  0
   17.7842   -7.7538    0.0000 C    0  0  0  0  0  0  0  0  0  0  0  0
   17.7848   -6.4233    0.0000 C    0  0  0  0  0  0  0  0  0  0  0  0
   18.9360   -8.4188    0.0000 C    0  0  0  0  0  0  0  0  0  0  0  0
   18.9368   -5.7575    0.0000 C    0  0  0  0  0  0  0  0  0  0  0  0
   20.0884   -7.7533    0.0000 C    0  0  0  0  0  0  0  0  0  0  0  0
   20.0886   -6.4225    0.0000 C    0  0  0  0  0  0  0  0  0  0  0  0
   11.8748   -3.8405    0.0000 C    0  0  0  0  0  0  0  0  0  0  0  0
   12.6925   -2.7970    0.0000 C    0  0  0  0  0  0  0  0  0  0  0  0
   10.5597   -3.6543    0.0000 C    0  0  0  0  0  0  0  0  0  0  0  0
   12.1986   -1.5602    0.0000 C    0  0  0  0  0  0  0  0  0  0  0  0
   10.0611   -2.4246    0.0000 C    0  0  0  0  0  0  0  0  0  0  0  0
   10.8831   -1.3738    0.0000 C    0  0  0  0  0  0  0  0  0  0  0  0
   13.7711   -9.1727    0.0000 Rh   0  0  0  0  0  0  0  0  0  0  0  0
   12.4840   -9.5047    0.0000 O    0  0  0  0  0  0  0  0  0  0  0  0
   11.5524   -8.5473    0.0000 O    0  0  0  0  0  0  0  0  0  0  0  0
    9.7377   -4.7051    0.0000 P    0  0  0  0  0  5  0  0  0  0  0  0
    8.7519   -5.5788    0.0000 C    0  0  0  0  0  0  0  0  0  0  0  0
    9.0310   -6.8867    0.0000 C    0  0  0  0  0  0  0  0  0  0  0  0
    7.4893   -5.1776    0.0000 C    0  0  0  0  0  0  0  0  0  0  0  0
    8.0363   -7.7760    0.0000 C    0  0  0  0  0  0  0  0  0  0  0  0
    6.4988   -6.0596    0.0000 C    0  0  0  0  0  0  0  0  0  0  0  0
    6.7778   -7.3668    0.0000 C    0  0  0  0  0  0  0  0  0  0  0  0
    7.4540   -2.9157    0.0000 C    0  0  0  0  0  0  0  0  0  0  0  0
    6.2215   -3.4011    0.0000 C    0  0  0  0  0  0  0  0  0  0  0  0
    7.6401   -1.5999    0.0000 C    0  0  0  0  0  0  0  0  0  0  0  0
    5.1783   -2.5840    0.0000 C    0  0  0  0  0  0  0  0  0  0  0  0
    6.6013   -0.7750    0.0000 C    0  0  0  0  0  0  0  0  0  0  0  0
    5.3640   -1.2687    0.0000 C    0  0  0  0  0  0  0  0  0  0  0  0
   15.0732   -9.4535    0.0000 N    0  0  0  0  0  0  0  0  0  0  0  0
   15.9624   -8.4622    0.0000 N    0  3  0  0  0  0  0  0  0  0  0  0
   16.8429   -7.4868    0.0000 N    0  5  0  0  0  0  0  0  0  0  0  0
   16.6330   -5.7583    0.0000 P    0  0  0  0  0  0  0  0  0  0  0  0
   13.6795  -10.5020    0.0000 P    0  0  0  0  0  0  0  0  0  0  0  0
   13.2134   -5.4935    0.0000 C    0  0  0  0  0  0  0  0  0  0  0  0
   14.4570   -5.9454    0.0000 C    0  0  0  0  0  0  0  0  0  0  0  0
   12.9825   -4.1730    0.0000 C    0  0  0  0  0  0  0  0  0  0  0  0
   15.4811   -5.0933    0.0000 C    0  0  0  0  0  0  0  0  0  0  0  0
   14.0024   -3.3282    0.0000 C    0  0  0  0  0  0  0  0  0  0  0  0
   15.2542   -3.7849    0.0000 C    0  0  0  0  0  0  0  0  0  0  0  0
   19.2935   -3.4552    0.0000 C    0  0  0  0  0  0  0  0  0  0  0  0
   18.6285   -4.6070    0.0000 C    0  0  0  0  0  0  0  0  0  0  0  0
   18.6277   -2.3033    0.0000 C    0  0  0  0  0  0  0  0  0  0  0  0
   17.2980   -4.6065    0.0000 C    0  0  0  0  0  0  0  0  0  0  0  0
   17.2972   -2.3027    0.0000 C    0  0  0  0  0  0  0  0  0  0  0  0
   16.6322   -3.4545    0.0000 C    0  0  0  0  0  0  0  0  0  0  0  0
  1  2  1  0  0  0  0
  1  3  2  0  0  0  0
  2  4  2  0  0  0  0
  3  5  1  0  0  0  0
  4  6  1  0  0  0  0
  5  6  2  0  0  0  0
  7  8  1  0  0  0  0
  7  9  2  0  0  0  0
  8 10  2  0  0  0  0
  9 11  1  0  0  0  0
 10 12  1  0  0  0  0
 11 12  2  0  0  0  0
 13 14  1  0  0  0  0
 13 15  2  0  0  0  0
 14 16  2  0  0  0  0
 15 17  1  0  0  0  0
 16 18  1  0  0  0  0
 17 18  2  0  0  0  0
 19 20  1  0  0  0  0
 19 21  2  0  0  0  0
 20 22  2  0  0  0  0
 21 23  1  0  0  0  0
 22 24  1  0  0  0  0
 23 24  2  0  0  0  0
 25 26  1  0  0  0  0
 25 27  2  0  0  0  0
 26 28  2  0  0  0  0
 27 29  1  0  0  0  0
 28 30  1  0  0  0  0
 29 30  2  0  0  0  0
 31 32  1  0  0  0  0
 32 33  2  0  0  0  0
 31 34  1  0  0  0  0
 35 36  1  0  0  0  0
 35 37  2  0  0  0  0
 36 38  2  0  0  0  0
 37 39  1  0  0  0  0
 38 40  1  0  0  0  0
 39 40  2  0  0  0  0
 34 35  1  0  0  0  0
 41 42  1  0  0  0  0
 41 43  2  0  0  0  0
 42 44  2  0  0  0  0
 43 45  1  0  0  0  0
 44 46  1  0  0  0  0
 45 46  2  0  0  0  0
 34 41  1  0  0  0  0
 27 34  1  0  0  0  0
 47 48  2  0  0  0  0
 48 49  2  0  0  0  0
 31 47  1  0  0  0  0
 31 50  1  0  0  0  0
 31 51  1  0  0  0  0
 52 53  1  0  0  0  0
 52 54  2  0  0  0  0
 53 55  2  0  0  0  0
 54 56  1  0  0  0  0
 55 57  1  0  0  0  0
 56 57  2  0  0  0  0
 50 55  1  0  0  0  0
 58 59  1  0  0  0  0
 58 60  2  0  0  0  0
 59 61  2  0  0  0  0
 60 62  1  0  0  0  0
 61 63  1  0  0  0  0
 62 63  2  0  0  0  0
 50 61  1  0  0  0  0
 20 50  1  0  0  0  0
 13 51  1  0  0  0  0
  7 51  1  0  0  0  0
  3 51  1  0  0  0  0
M  END
> <NMREDATA_VERSION>
1.1

> <NMREDATA_LEVEL>
0

> <NMREDATA_SOLVENT>
DCCl3

> <NMREDATA_TEMPERATURE>
300

> <NMREDATA_FORMULA>
C54H50N3O2P3Rh

> <NMREDATA_SMILES>
O=[O][Rh](P(c1ccccc1)(c1ccccc1)c1ccccc1)(P(c1ccccc1)(c1ccccc1)c1ccccc1)(P(c1ccccc1)(c1ccccc1)c1ccccc1)N=N=N

> <NMREDATA_ASSIGNMENT>
Rh31, 3273.00, 31

> <NMREDATA_1D_103Rh>
3273.00, L=Rh31

$$$$

  ACD/LABS04012415062D

 63 71  0  0  0  0  0  0  0  0  1 V2000
   15.8950   -9.8564    0.0000 C    0  0  0  0  0  0  0  0  0  0  0  0
   17.1822  -10.1799    0.0000 C    0  0  0  0  0  0  0  0  0  0  0  0
   14.9712  -10.8178    0.0000 C    0  0  0  0  0  0  0  0  0  0  0  0
   17.5623  -11.4538    0.0000 C    0  0  0  0  0  0  0  0  0  0  0  0
   15.3472  -12.0997    0.0000 C    0  0  0  0  0  0  0  0  0  0  0  0
   16.6389  -12.4155    0.0000 C    0  0  0  0  0  0  0  0  0  0  0  0
   12.3601  -10.6411    0.0000 C    0  0  0  0  0  0  0  0  0  0  0  0
   11.5786   -9.5655    0.0000 C    0  0  0  0  0  0  0  0  0  0  0  0
   11.8225  -11.8561    0.0000 C    0  0  0  0  0  0  0  0  0  0  0  0
   10.2596   -9.7049    0.0000 C    0  0  0  0  0  0  0  0  0  0  0  0
   10.4912  -11.9988    0.0000 C    0  0  0  0  0  0  0  0  0  0  0  0
    9.7098  -10.9232    0.0000 C    0  0  0  0  0  0  0  0  0  0  0  0
   13.5874  -11.8310    0.0000 C    0  0  0  0  0  0  0  0  0  0  0  0
   14.6950  -12.5727    0.0000 C    0  0  0  0  0  0  0  0  0  0  0  0
   12.4007  -12.4150    0.0000 C    0  0  0  0  0  0  0  0  0  0  0  0
   14.6033  -13.9020    0.0000 C    0  0  0  0  0  0  0  0  0  0  0  0
   12.3090  -13.7443    0.0000 C    0  0  0  0  0  0  0  0  0  0  0  0
   13.4088  -14.4814    0.0000 C    0  0  0  0  0  0  0  0  0  0  0  0
   17.7842   -7.7538    0.0000 C    0  0  0  0  0  0  0  0  0  0  0  0
   17.7848   -6.4233    0.0000 C    0  0  0  0  0  0  0  0  0  0  0  0
   18.9360   -8.4188    0.0000 C    0  0  0  0  0  0  0  0  0  0  0  0
   18.9368   -5.7575    0.0000 C    0  0  0  0  0  0  0  0  0  0  0  0
   20.0884   -7.7533    0.0000 C    0  0  0  0  0  0  0  0  0  0  0  0
   20.0886   -6.4225    0.0000 C    0  0  0  0  0  0  0  0  0  0  0  0
   11.8748   -3.8405    0.0000 C    0  0  0  0  0  0  0  0  0  0  0  0
   12.6925   -2.7970    0.0000 C    0  0  0  0  0  0  0  0  0  0  0  0
   10.5597   -3.6543    0.0000 C    0  0  0  0  0  0  0  0  0  0  0  0
   12.1986   -1.5602    0.0000 C    0  0  0  0  0  0  0  0  0  0  0  0
   10.0611   -2.4246    0.0000 C    0  0  0  0  0  0  0  0  0  0  0  0
   10.8831   -1.3738    0.0000 C    0  0  0  0  0  0  0  0  0  0  0  0
   13.7711   -9.1727    0.0000 Rh   0  0  0  0  0  0  0  0  0  0  0  0
   12.4840   -9.5047    0.0000 O    0  0  0  0  0  0  0  0  0  0  0  0
   11.5524   -8.5473    0.0000 O    0  0  0  0  0  0  0  0  0  0  0  0
    9.7377   -4.7051    0.0000 P    0  0  0  0  0  5  0  0  0  0  0  0
    8.7519   -5.5788    0.0000 C    0  0  0  0  0  0  0  0  0  0  0  0
    9.0310   -6.8867    0.0000 C    0  0  0  0  0  0  0  0  0  0  0  0
    7.4893   -5.1776    0.0000 C    0  0  0  0  0  0  0  0  0  0  0  0
    8.0363   -7.7760    0.0000 C    0  0  0  0  0  0  0  0  0  0  0  0
    6.4988   -6.0596    0.0000 C    0  0  0  0  0  0  0  0  0  0  0  0
    6.7778   -7.3668    0.0000 C    0  0  0  0  0  0  0  0  0  0  0  0
    7.4540   -2.9157    0.0000 C    0  0  0  0  0  0  0  0  0  0  0  0
    6.2215   -3.4011    0.0000 C    0  0  0  0  0  0  0  0  0  0  0  0
    7.6401   -1.5999    0.0000 C    0  0  0  0  0  0  0  0  0  0  0  0
    5.1783   -2.5840    0.0000 C    0  0  0  0  0  0  0  0  0  0  0  0
    6.6013   -0.7750    0.0000 C    0  0  0  0  0  0  0  0  0  0  0  0
    5.3640   -1.2687    0.0000 C    0  0  0  0  0  0  0  0  0  0  0  0
   16.6330   -5.7583    0.0000 P    0  0  0  0  0  0  0  0  0  0  0  0
   13.6795  -10.5020    0.0000 P    0  0  0  0  0  0  0  0  0  0  0  0
   13.2134   -5.4935    0.0000 C    0  0  0  0  0  0  0  0  0  0  0  0
   14.4570   -5.9454    0.0000 C    0  0  0  0  0  0  0  0  0  0  0  0
   12.9825   -4.1730    0.0000 C    0  0  0  0  0  0  0  0  0  0  0  0
   15.4811   -5.0933    0.0000 C    0  0  0  0  0  0  0  0  0  0  0  0
   14.0024   -3.3282    0.0000 C    0  0  0  0  0  0  0  0  0  0  0  0
   15.2542   -3.7849    0.0000 C    0  0  0  0  0  0  0  0  0  0  0  0
   19.2935   -3.4552    0.0000 C    0  0  0  0  0  0  0  0  0  0  0  0
   18.6285   -4.6070    0.0000 C    0  0  0  0  0  0  0  0  0  0  0  0
   18.6277   -2.3033    0.0000 C    0  0  0  0  0  0  0  0  0  0  0  0
   17.2980   -4.6065    0.0000 C    0  0  0  0  0  0  0  0  0  0  0  0
   17.2972   -2.3027    0.0000 C    0  0  0  0  0  0  0  0  0  0  0  0
   16.6322   -3.4545    0.0000 C    0  0  0  0  0  0  0  0  0  0  0  0
   15.0047   -9.6699    0.0000 N    0  0  0  0  0  0  0  0  0  0  0  0
   16.0521   -8.8503    0.0000 C    0  0  0  0  0  0  0  0  0  0  0  0
   17.0995   -8.0307    0.0000 O    0  0  0  0  0  0  0  0  0  0  0  0
  1  2  1  0  0  0  0
  1  3  2  0  0  0  0
  2  4  2  0  0  0  0
  3  5  1  0  0  0  0
  4  6  1  0  0  0  0
  5  6  2  0  0  0  0
  7  8  1  0  0  0  0
  7  9  2  0  0  0  0
  8 10  2  0  0  0  0
  9 11  1  0  0  0  0
 10 12  1  0  0  0  0
 11 12  2  0  0  0  0
 13 14  1  0  0  0  0
 13 15  2  0  0  0  0
 14 16  2  0  0  0  0
 15 17  1  0  0  0  0
 16 18  1  0  0  0  0
 17 18  2  0  0  0  0
 19 20  1  0  0  0  0
 19 21  2  0  0  0  0
 20 22  2  0  0  0  0
 21 23  1  0  0  0  0
 22 24  1  0  0  0  0
 23 24  2  0  0  0  0
 25 26  1  0  0  0  0
 25 27  2  0  0  0  0
 26 28  2  0  0  0  0
 27 29  1  0  0  0  0
 28 30  1  0  0  0  0
 29 30  2  0  0  0  0
 31 32  1  0  0  0  0
 32 33  2  0  0  0  0
 31 34  1  0  0  0  0
 35 36  1  0  0  0  0
 35 37  2  0  0  0  0
 36 38  2  0  0  0  0
 37 39  1  0  0  0  0
 38 40  1  0  0  0  0
 39 40  2  0  0  0  0
 34 35  1  0  0  0  0
 41 42  1  0  0  0  0
 41 43  2  0  0  0  0
 42 44  2  0  0  0  0
 43 45  1  0  0  0  0
 44 46  1  0  0  0  0
 45 46  2  0  0  0  0
 34 41  1  0  0  0  0
 27 34  1  0  0  0  0
 31 47  1  0  0  0  0
 31 48  1  0  0  0  0
 49 50  1  0  0  0  0
 49 51  2  0  0  0  0
 50 52  2  0  0  0  0
 51 53  1  0  0  0  0
 52 54  1  0  0  0  0
 53 54  2  0  0  0  0
 47 52  1  0  0  0  0
 55 56  1  0  0  0  0
 55 57  2  0  0  0  0
 56 58  2  0  0  0  0
 57 59  1  0  0  0  0
 58 60  1  0  0  0  0
 59 60  2  0  0  0  0
 47 58  1  0  0  0  0
 20 47  1  0  0  0  0
 13 48  1  0  0  0  0
  7 48  1  0  0  0  0
  3 48  1  0  0  0  0
 61 62  2  0  0  0  0
 62 63  2  0  0  0  0
 31 61  1  0  0  0  0
M  END
> <NMREDATA_VERSION>
1.1

> <NMREDATA_LEVEL>
0

> <NMREDATA_SOLVENT>
DCCl3

> <NMREDATA_TEMPERATURE>
300

> <NMREDATA_FORMULA>
C55H48NO3P3Rh

> <NMREDATA_SMILES>
O=[O][Rh](P(c1ccccc1)(c1ccccc1)c1ccccc1)(P(c1ccccc1)(c1ccccc1)c1ccccc1)(P(c1ccccc1)(c1ccccc1)c1ccccc1)N=C=O

> <NMREDATA_ASSIGNMENT>
Rh31, 3106.00, 31

> <NMREDATA_1D_103Rh>
3106.00, L=Rh31

$$$$

  ACD/LABS04012415072D

 63 71  0  0  0  0  0  0  0  0  1 V2000
   15.8950   -9.8564    0.0000 C    0  0  0  0  0  0  0  0  0  0  0  0
   17.1822  -10.1799    0.0000 C    0  0  0  0  0  0  0  0  0  0  0  0
   14.9712  -10.8178    0.0000 C    0  0  0  0  0  0  0  0  0  0  0  0
   17.5623  -11.4538    0.0000 C    0  0  0  0  0  0  0  0  0  0  0  0
   15.3472  -12.0997    0.0000 C    0  0  0  0  0  0  0  0  0  0  0  0
   16.6389  -12.4155    0.0000 C    0  0  0  0  0  0  0  0  0  0  0  0
   12.3601  -10.6411    0.0000 C    0  0  0  0  0  0  0  0  0  0  0  0
   11.5786   -9.5655    0.0000 C    0  0  0  0  0  0  0  0  0  0  0  0
   11.8225  -11.8561    0.0000 C    0  0  0  0  0  0  0  0  0  0  0  0
   10.2596   -9.7049    0.0000 C    0  0  0  0  0  0  0  0  0  0  0  0
   10.4912  -11.9988    0.0000 C    0  0  0  0  0  0  0  0  0  0  0  0
    9.7098  -10.9232    0.0000 C    0  0  0  0  0  0  0  0  0  0  0  0
   13.5874  -11.8310    0.0000 C    0  0  0  0  0  0  0  0  0  0  0  0
   14.6950  -12.5727    0.0000 C    0  0  0  0  0  0  0  0  0  0  0  0
   12.4007  -12.4150    0.0000 C    0  0  0  0  0  0  0  0  0  0  0  0
   14.6033  -13.9020    0.0000 C    0  0  0  0  0  0  0  0  0  0  0  0
   12.3090  -13.7443    0.0000 C    0  0  0  0  0  0  0  0  0  0  0  0
   13.4088  -14.4814    0.0000 C    0  0  0  0  0  0  0  0  0  0  0  0
   17.7842   -7.7538    0.0000 C    0  0  0  0  0  0  0  0  0  0  0  0
   17.7848   -6.4233    0.0000 C    0  0  0  0  0  0  0  0  0  0  0  0
   18.9360   -8.4188    0.0000 C    0  0  0  0  0  0  0  0  0  0  0  0
   18.9368   -5.7575    0.0000 C    0  0  0  0  0  0  0  0  0  0  0  0
   20.0884   -7.7533    0.0000 C    0  0  0  0  0  0  0  0  0  0  0  0
   20.0886   -6.4225    0.0000 C    0  0  0  0  0  0  0  0  0  0  0  0
   11.8748   -3.8405    0.0000 C    0  0  0  0  0  0  0  0  0  0  0  0
   12.6925   -2.7970    0.0000 C    0  0  0  0  0  0  0  0  0  0  0  0
   10.5597   -3.6543    0.0000 C    0  0  0  0  0  0  0  0  0  0  0  0
   12.1986   -1.5602    0.0000 C    0  0  0  0  0  0  0  0  0  0  0  0
   10.0611   -2.4246    0.0000 C    0  0  0  0  0  0  0  0  0  0  0  0
   10.8831   -1.3738    0.0000 C    0  0  0  0  0  0  0  0  0  0  0  0
   13.7711   -9.1727    0.0000 Rh   0  0  0  0  0  0  0  0  0  0  0  0
   12.4840   -9.5047    0.0000 O    0  0  0  0  0  0  0  0  0  0  0  0
   11.5524   -8.5473    0.0000 O    0  0  0  0  0  0  0  0  0  0  0  0
    9.7377   -4.7051    0.0000 P    0  0  0  0  0  5  0  0  0  0  0  0
    8.7519   -5.5788    0.0000 C    0  0  0  0  0  0  0  0  0  0  0  0
    9.0310   -6.8867    0.0000 C    0  0  0  0  0  0  0  0  0  0  0  0
    7.4893   -5.1776    0.0000 C    0  0  0  0  0  0  0  0  0  0  0  0
    8.0363   -7.7760    0.0000 C    0  0  0  0  0  0  0  0  0  0  0  0
    6.4988   -6.0596    0.0000 C    0  0  0  0  0  0  0  0  0  0  0  0
    6.7778   -7.3668    0.0000 C    0  0  0  0  0  0  0  0  0  0  0  0
    7.4540   -2.9157    0.0000 C    0  0  0  0  0  0  0  0  0  0  0  0
    6.2215   -3.4011    0.0000 C    0  0  0  0  0  0  0  0  0  0  0  0
    7.6401   -1.5999    0.0000 C    0  0  0  0  0  0  0  0  0  0  0  0
    5.1783   -2.5840    0.0000 C    0  0  0  0  0  0  0  0  0  0  0  0
    6.6013   -0.7750    0.0000 C    0  0  0  0  0  0  0  0  0  0  0  0
    5.3640   -1.2687    0.0000 C    0  0  0  0  0  0  0  0  0  0  0  0
   16.6330   -5.7583    0.0000 P    0  0  0  0  0  0  0  0  0  0  0  0
   13.6795  -10.5020    0.0000 P    0  0  0  0  0  0  0  0  0  0  0  0
   13.2134   -5.4935    0.0000 C    0  0  0  0  0  0  0  0  0  0  0  0
   14.4570   -5.9454    0.0000 C    0  0  0  0  0  0  0  0  0  0  0  0
   12.9825   -4.1730    0.0000 C    0  0  0  0  0  0  0  0  0  0  0  0
   15.4811   -5.0933    0.0000 C    0  0  0  0  0  0  0  0  0  0  0  0
   14.0024   -3.3282    0.0000 C    0  0  0  0  0  0  0  0  0  0  0  0
   15.2542   -3.7849    0.0000 C    0  0  0  0  0  0  0  0  0  0  0  0
   19.2935   -3.4552    0.0000 C    0  0  0  0  0  0  0  0  0  0  0  0
   18.6285   -4.6070    0.0000 C    0  0  0  0  0  0  0  0  0  0  0  0
   18.6277   -2.3033    0.0000 C    0  0  0  0  0  0  0  0  0  0  0  0
   17.2980   -4.6065    0.0000 C    0  0  0  0  0  0  0  0  0  0  0  0
   17.2972   -2.3027    0.0000 C    0  0  0  0  0  0  0  0  0  0  0  0
   16.6322   -3.4545    0.0000 C    0  0  0  0  0  0  0  0  0  0  0  0
   15.0047   -9.6699    0.0000 N    0  0  0  0  0  0  0  0  0  0  0  0
   16.0521   -8.8503    0.0000 C    0  0  0  0  0  0  0  0  0  0  0  0
   17.0995   -8.0307    0.0000 S    0  0  0  0  0  0  0  0  0  0  0  0
  1  2  1  0  0  0  0
  1  3  2  0  0  0  0
  2  4  2  0  0  0  0
  3  5  1  0  0  0  0
  4  6  1  0  0  0  0
  5  6  2  0  0  0  0
  7  8  1  0  0  0  0
  7  9  2  0  0  0  0
  8 10  2  0  0  0  0
  9 11  1  0  0  0  0
 10 12  1  0  0  0  0
 11 12  2  0  0  0  0
 13 14  1  0  0  0  0
 13 15  2  0  0  0  0
 14 16  2  0  0  0  0
 15 17  1  0  0  0  0
 16 18  1  0  0  0  0
 17 18  2  0  0  0  0
 19 20  1  0  0  0  0
 19 21  2  0  0  0  0
 20 22  2  0  0  0  0
 21 23  1  0  0  0  0
 22 24  1  0  0  0  0
 23 24  2  0  0  0  0
 25 26  1  0  0  0  0
 25 27  2  0  0  0  0
 26 28  2  0  0  0  0
 27 29  1  0  0  0  0
 28 30  1  0  0  0  0
 29 30  2  0  0  0  0
 31 32  1  0  0  0  0
 32 33  2  0  0  0  0
 31 34  1  0  0  0  0
 35 36  1  0  0  0  0
 35 37  2  0  0  0  0
 36 38  2  0  0  0  0
 37 39  1  0  0  0  0
 38 40  1  0  0  0  0
 39 40  2  0  0  0  0
 34 35  1  0  0  0  0
 41 42  1  0  0  0  0
 41 43  2  0  0  0  0
 42 44  2  0  0  0  0
 43 45  1  0  0  0  0
 44 46  1  0  0  0  0
 45 46  2  0  0  0  0
 34 41  1  0  0  0  0
 27 34  1  0  0  0  0
 31 47  1  0  0  0  0
 31 48  1  0  0  0  0
 49 50  1  0  0  0  0
 49 51  2  0  0  0  0
 50 52  2  0  0  0  0
 51 53  1  0  0  0  0
 52 54  1  0  0  0  0
 53 54  2  0  0  0  0
 47 52  1  0  0  0  0
 55 56  1  0  0  0  0
 55 57  2  0  0  0  0
 56 58  2  0  0  0  0
 57 59  1  0  0  0  0
 58 60  1  0  0  0  0
 59 60  2  0  0  0  0
 47 58  1  0  0  0  0
 20 47  1  0  0  0  0
 13 48  1  0  0  0  0
  7 48  1  0  0  0  0
  3 48  1  0  0  0  0
 61 62  2  0  0  0  0
 62 63  2  0  0  0  0
 31 61  1  0  0  0  0
M  END
> <NMREDATA_VERSION>
1.1

> <NMREDATA_LEVEL>
0

> <NMREDATA_SOLVENT>
DCCl3

> <NMREDATA_TEMPERATURE>
300

> <NMREDATA_FORMULA>
C55H48NO2P3RhS

> <NMREDATA_SMILES>
O=[O][Rh](P(c1ccccc1)(c1ccccc1)c1ccccc1)(P(c1ccccc1)(c1ccccc1)c1ccccc1)(P(c1ccccc1)(c1ccccc1)c1ccccc1)N=C=S

> <NMREDATA_ASSIGNMENT>
Rh31, 2994.00, 31

> <NMREDATA_1D_103Rh>
2994.00, L=Rh31

$$$$

  ACD/LABS04012415072D

 65 73  0  0  0  0  0  0  0  0  1 V2000
   15.8950   -9.8564    0.0000 C    0  0  0  0  0  0  0  0  0  0  0  0
   17.1822  -10.1799    0.0000 C    0  0  0  0  0  0  0  0  0  0  0  0
   14.9712  -10.8178    0.0000 C    0  0  0  0  0  0  0  0  0  0  0  0
   17.5623  -11.4538    0.0000 C    0  0  0  0  0  0  0  0  0  0  0  0
   15.3472  -12.0997    0.0000 C    0  0  0  0  0  0  0  0  0  0  0  0
   16.6389  -12.4155    0.0000 C    0  0  0  0  0  0  0  0  0  0  0  0
   12.3601  -10.6411    0.0000 C    0  0  0  0  0  0  0  0  0  0  0  0
   11.5786   -9.5655    0.0000 C    0  0  0  0  0  0  0  0  0  0  0  0
   11.8225  -11.8561    0.0000 C    0  0  0  0  0  0  0  0  0  0  0  0
   10.2596   -9.7049    0.0000 C    0  0  0  0  0  0  0  0  0  0  0  0
   10.4912  -11.9988    0.0000 C    0  0  0  0  0  0  0  0  0  0  0  0
    9.7098  -10.9232    0.0000 C    0  0  0  0  0  0  0  0  0  0  0  0
   13.5874  -11.8310    0.0000 C    0  0  0  0  0  0  0  0  0  0  0  0
   14.6950  -12.5727    0.0000 C    0  0  0  0  0  0  0  0  0  0  0  0
   12.4007  -12.4150    0.0000 C    0  0  0  0  0  0  0  0  0  0  0  0
   14.6033  -13.9020    0.0000 C    0  0  0  0  0  0  0  0  0  0  0  0
   12.3090  -13.7443    0.0000 C    0  0  0  0  0  0  0  0  0  0  0  0
   13.4088  -14.4814    0.0000 C    0  0  0  0  0  0  0  0  0  0  0  0
   17.7842   -7.7538    0.0000 C    0  0  0  0  0  0  0  0  0  0  0  0
   17.7848   -6.4233    0.0000 C    0  0  0  0  0  0  0  0  0  0  0  0
   18.9360   -8.4188    0.0000 C    0  0  0  0  0  0  0  0  0  0  0  0
   18.9368   -5.7575    0.0000 C    0  0  0  0  0  0  0  0  0  0  0  0
   20.0884   -7.7533    0.0000 C    0  0  0  0  0  0  0  0  0  0  0  0
   20.0886   -6.4225    0.0000 C    0  0  0  0  0  0  0  0  0  0  0  0
   11.8748   -3.8405    0.0000 C    0  0  0  0  0  0  0  0  0  0  0  0
   12.6925   -2.7970    0.0000 C    0  0  0  0  0  0  0  0  0  0  0  0
   10.5597   -3.6543    0.0000 C    0  0  0  0  0  0  0  0  0  0  0  0
   12.1986   -1.5602    0.0000 C    0  0  0  0  0  0  0  0  0  0  0  0
   10.0611   -2.4246    0.0000 C    0  0  0  0  0  0  0  0  0  0  0  0
   10.8831   -1.3738    0.0000 C    0  0  0  0  0  0  0  0  0  0  0  0
   13.7711   -9.1727    0.0000 Rh   0  0  0  0  0  0  0  0  0  0  0  0
   12.4840   -9.5047    0.0000 O    0  0  0  0  0  0  0  0  0  0  0  0
   11.5524   -8.5473    0.0000 O    0  0  0  0  0  0  0  0  0  0  0  0
    9.7377   -4.7051    0.0000 P    0  0  0  0  0  5  0  0  0  0  0  0
    8.7519   -5.5788    0.0000 C    0  0  0  0  0  0  0  0  0  0  0  0
    9.0310   -6.8867    0.0000 C    0  0  0  0  0  0  0  0  0  0  0  0
    7.4893   -5.1776    0.0000 C    0  0  0  0  0  0  0  0  0  0  0  0
    8.0363   -7.7760    0.0000 C    0  0  0  0  0  0  0  0  0  0  0  0
    6.4988   -6.0596    0.0000 C    0  0  0  0  0  0  0  0  0  0  0  0
    6.7778   -7.3668    0.0000 C    0  0  0  0  0  0  0  0  0  0  0  0
    7.4540   -2.9157    0.0000 C    0  0  0  0  0  0  0  0  0  0  0  0
    6.2215   -3.4011    0.0000 C    0  0  0  0  0  0  0  0  0  0  0  0
    7.6401   -1.5999    0.0000 C    0  0  0  0  0  0  0  0  0  0  0  0
    5.1783   -2.5840    0.0000 C    0  0  0  0  0  0  0  0  0  0  0  0
    6.6013   -0.7750    0.0000 C    0  0  0  0  0  0  0  0  0  0  0  0
    5.3640   -1.2687    0.0000 C    0  0  0  0  0  0  0  0  0  0  0  0
   16.6330   -5.7583    0.0000 P    0  0  0  0  0  0  0  0  0  0  0  0
   13.6795  -10.5020    0.0000 P    0  0  0  0  0  0  0  0  0  0  0  0
   13.2134   -5.4935    0.0000 C    0  0  0  0  0  0  0  0  0  0  0  0
   14.4570   -5.9454    0.0000 C    0  0  0  0  0  0  0  0  0  0  0  0
   12.9825   -4.1730    0.0000 C    0  0  0  0  0  0  0  0  0  0  0  0
   15.4811   -5.0933    0.0000 C    0  0  0  0  0  0  0  0  0  0  0  0
   14.0024   -3.3282    0.0000 C    0  0  0  0  0  0  0  0  0  0  0  0
   15.2542   -3.7849    0.0000 C    0  0  0  0  0  0  0  0  0  0  0  0
   19.2935   -3.4552    0.0000 C    0  0  0  0  0  0  0  0  0  0  0  0
   18.6285   -4.6070    0.0000 C    0  0  0  0  0  0  0  0  0  0  0  0
   18.6277   -2.3033    0.0000 C    0  0  0  0  0  0  0  0  0  0  0  0
   17.2980   -4.6065    0.0000 C    0  0  0  0  0  0  0  0  0  0  0  0
   17.2972   -2.3027    0.0000 C    0  0  0  0  0  0  0  0  0  0  0  0
   16.6322   -3.4545    0.0000 C    0  0  0  0  0  0  0  0  0  0  0  0
   15.0047   -9.6699    0.0000 N    0  0  0  0  0  0  0  0  0  0  0  0
   16.0521   -8.8503    0.0000 C    0  0  0  0  0  0  0  0  0  0  0  0
   17.0996   -8.0307    0.0000 N    0  0  0  0  0  0  0  0  0  0  0  0
   15.1908  -10.9869    0.0000 C    0  0  0  0  0  0  0  0  0  0  0  0
   15.3769  -12.3038    0.0000 N    0  0  0  0  0  0  0  0  0  0  0  0
  1  2  1  0  0  0  0
  1  3  2  0  0  0  0
  2  4  2  0  0  0  0
  3  5  1  0  0  0  0
  4  6  1  0  0  0  0
  5  6  2  0  0  0  0
  7  8  1  0  0  0  0
  7  9  2  0  0  0  0
  8 10  2  0  0  0  0
  9 11  1  0  0  0  0
 10 12  1  0  0  0  0
 11 12  2  0  0  0  0
 13 14  1  0  0  0  0
 13 15  2  0  0  0  0
 14 16  2  0  0  0  0
 15 17  1  0  0  0  0
 16 18  1  0  0  0  0
 17 18  2  0  0  0  0
 19 20  1  0  0  0  0
 19 21  2  0  0  0  0
 20 22  2  0  0  0  0
 21 23  1  0  0  0  0
 22 24  1  0  0  0  0
 23 24  2  0  0  0  0
 25 26  1  0  0  0  0
 25 27  2  0  0  0  0
 26 28  2  0  0  0  0
 27 29  1  0  0  0  0
 28 30  1  0  0  0  0
 29 30  2  0  0  0  0
 31 32  1  0  0  0  0
 32 33  2  0  0  0  0
 31 34  1  0  0  0  0
 35 36  1  0  0  0  0
 35 37  2  0  0  0  0
 36 38  2  0  0  0  0
 37 39  1  0  0  0  0
 38 40  1  0  0  0  0
 39 40  2  0  0  0  0
 34 35  1  0  0  0  0
 41 42  1  0  0  0  0
 41 43  2  0  0  0  0
 42 44  2  0  0  0  0
 43 45  1  0  0  0  0
 44 46  1  0  0  0  0
 45 46  2  0  0  0  0
 34 41  1  0  0  0  0
 27 34  1  0  0  0  0
 31 47  1  0  0  0  0
 31 48  1  0  0  0  0
 49 50  1  0  0  0  0
 49 51  2  0  0  0  0
 50 52  2  0  0  0  0
 51 53  1  0  0  0  0
 52 54  1  0  0  0  0
 53 54  2  0  0  0  0
 47 52  1  0  0  0  0
 55 56  1  0  0  0  0
 55 57  2  0  0  0  0
 56 58  2  0  0  0  0
 57 59  1  0  0  0  0
 58 60  1  0  0  0  0
 59 60  2  0  0  0  0
 47 58  1  0  0  0  0
 20 47  1  0  0  0  0
 13 48  1  0  0  0  0
  7 48  1  0  0  0  0
  3 48  1  0  0  0  0
 31 61  1  0  0  0  0
 62 63  3  0  0  0  0
 61 62  1  0  0  0  0
 64 65  3  0  0  0  0
 61 64  1  0  0  0  0
M  END
> <NMREDATA_VERSION>
1.1

> <NMREDATA_LEVEL>
0

> <NMREDATA_SOLVENT>
DCCl3

> <NMREDATA_TEMPERATURE>
300

> <NMREDATA_FORMULA>
C56H48N3O2P3Rh

> <NMREDATA_SMILES>
O=[O][Rh](P(c1ccccc1)(c1ccccc1)c1ccccc1)(P(c1ccccc1)(c1ccccc1)c1ccccc1)(P(c1ccccc1)(c1ccccc1)c1ccccc1)N(C#N)C#N

> <NMREDATA_ASSIGNMENT>
Rh31, 2988.00, 31

> <NMREDATA_1D_103Rh>
2988.00, L=Rh31

$$$$

  ACD/LABS04012415092D

 69 78  0  0  0  0  0  0  0  0  2 V2000
   11.1344  -16.8636    0.0000 C    0  0  0  0  0  0  0  0  0  0  0  0
   11.3665  -18.1649    0.0000 C    0  0  0  0  0  0  0  0  0  0  0  0
   12.1480  -15.9948    0.0000 C    0  0  0  0  0  0  0  0  0  0  0  0
   12.6181  -18.6213    0.0000 C    0  0  0  0  0  0  0  0  0  0  0  0
   13.4001  -16.4514    0.0000 C    0  0  0  0  0  0  0  0  0  0  0  0
   13.6394  -17.7568    0.0000 C    0  0  0  0  0  0  0  0  0  0  0  0
   10.6033  -14.9286    0.0000 C    0  0  0  0  0  0  0  0  0  0  0  0
    9.7471  -13.9121    0.0000 C    0  0  0  0  0  0  0  0  0  0  0  0
   10.1588  -16.1775    0.0000 C    0  0  0  0  0  0  0  0  0  0  0  0
    8.4419  -14.1521    0.0000 C    0  0  0  0  0  0  0  0  0  0  0  0
    8.8457  -16.4124    0.0000 C    0  0  0  0  0  0  0  0  0  0  0  0
    7.9972  -15.4003    0.0000 C    0  0  0  0  0  0  0  0  0  0  0  0
   13.2218  -14.4545    0.0000 C    0  0  0  0  0  0  0  0  0  0  0  0
   14.0785  -15.4713    0.0000 C    0  0  0  0  0  0  0  0  0  0  0  0
   13.6785  -13.2024    0.0000 C    0  0  0  0  0  0  0  0  0  0  0  0
   15.3919  -15.2360    0.0000 C    0  0  0  0  0  0  0  0  0  0  0  0
   14.9795  -12.9708    0.0000 C    0  0  0  0  0  0  0  0  0  0  0  0
   15.8406  -13.9799    0.0000 C    0  0  0  0  0  0  0  0  0  0  0  0
   17.0159   -4.1236    0.0000 C    0  0  0  0  0  0  0  0  0  0  0  0
   15.8635   -4.7895    0.0000 C    0  0  0  0  0  0  0  0  0  0  0  0
   18.1677   -4.7886    0.0000 C    0  0  0  0  0  0  0  0  0  0  0  0
   15.8633   -6.1200    0.0000 C    0  0  0  0  0  0  0  0  0  0  0  0
   18.1671   -6.1195    0.0000 C    0  0  0  0  0  0  0  0  0  0  0  0
   17.0151   -6.7850    0.0000 C    0  0  0  0  0  0  0  0  0  0  0  0
   13.1686   -7.4724    0.0000 C    0  0  0  0  0  0  0  0  0  0  0  0
   13.6208   -6.2279    0.0000 C    0  0  0  0  0  0  0  0  0  0  0  0
   14.0171   -8.4845    0.0000 C    0  0  0  0  0  0  0  0  0  0  0  0
   14.9180   -5.9839    0.0000 C    0  0  0  0  0  0  0  0  0  0  0  0
   15.3305   -8.2491    0.0000 C    0  0  0  0  0  0  0  0  0  0  0  0
   15.7747   -7.0007    0.0000 C    0  0  0  0  0  0  0  0  0  0  0  0
   10.8514   -8.7546    0.0000 Rh   0  0  0  0  0  0  0  0  0  0  0  0
   10.6163   -7.4419    0.0000 O    0  0  0  0  0  0  0  0  0  0  0  0
   11.6284   -6.5934    0.0000 O    0  0  0  0  0  0  0  0  0  0  0  0
   13.5731   -9.7324    0.0000 P    0  0  0  0  0  5  0  0  0  0  0  0
   12.9154  -10.8884    0.0000 C    0  0  0  0  0  0  0  0  0  0  0  0
   13.3775  -12.1276    0.0000 C    0  0  0  0  0  0  0  0  0  0  0  0
   11.6106  -10.6676    0.0000 C    0  0  0  0  0  0  0  0  0  0  0  0
   12.5291  -13.1536    0.0000 C    0  0  0  0  0  0  0  0  0  0  0  0
   10.7626  -11.6931    0.0000 C    0  0  0  0  0  0  0  0  0  0  0  0
   11.2192  -12.9395    0.0000 C    0  0  0  0  0  0  0  0  0  0  0  0
   14.8215  -10.1766    0.0000 C    0  0  0  0  0  0  0  0  0  0  0  0
   15.8336   -9.3281    0.0000 C    0  0  0  0  0  0  0  0  0  0  0  0
   15.0564  -11.4897    0.0000 C    0  0  0  0  0  0  0  0  0  0  0  0
   17.0853   -9.7845    0.0000 C    0  0  0  0  0  0  0  0  0  0  0  0
   16.3125  -11.9384    0.0000 C    0  0  0  0  0  0  0  0  0  0  0  0
   17.3246  -11.0899    0.0000 C    0  0  0  0  0  0  0  0  0  0  0  0
   14.7199   -4.1293    0.0000 P    0  0  0  0  0  0  0  0  0  0  0  0
   11.9164  -14.6938    0.0000 P    0  0  0  0  0  0  0  0  0  0  0  0
   12.4168   -1.4683    0.0000 C    0  0  0  0  0  0  0  0  0  0  0  0
   13.5686   -2.1333    0.0000 C    0  0  0  0  0  0  0  0  0  0  0  0
   11.2645   -2.1343    0.0000 C    0  0  0  0  0  0  0  0  0  0  0  0
   13.5681   -3.4643    0.0000 C    0  0  0  0  0  0  0  0  0  0  0  0
   11.2642   -3.4647    0.0000 C    0  0  0  0  0  0  0  0  0  0  0  0
   12.4160   -4.1297    0.0000 C    0  0  0  0  0  0  0  0  0  0  0  0
   15.3840   -0.6733    0.0000 C    0  0  0  0  0  0  0  0  0  0  0  0
   14.7190   -1.8251    0.0000 C    0  0  0  0  0  0  0  0  0  0  0  0
   16.7152   -0.6733    0.0000 C    0  0  0  0  0  0  0  0  0  0  0  0
   15.3849   -2.9775    0.0000 C    0  0  0  0  0  0  0  0  0  0  0  0
   17.3722   -1.8212    0.0000 C    0  0  0  0  0  0  0  0  0  0  0  0
   16.7072   -2.9730    0.0000 C    0  0  0  0  0  0  0  0  0  0  0  0
    9.5997   -8.2982    0.0000 C    0  0  0  0  0  0  0  0  0  0  0  0
    9.3676   -6.9969    0.0000 N    0  0  0  0  0  0  0  0  0  0  0  0
    8.5906   -9.1593    0.0000 C    0  0  0  0  0  0  0  0  0  0  0  0
    8.1160   -6.5405    0.0000 C    0  0  0  0  0  0  0  0  0  0  0  0
    7.3345   -8.7107    0.0000 C    0  0  0  0  0  0  0  0  0  0  0  0
    7.0991   -7.3973    0.0000 C    0  0  0  0  0  0  0  0  0  0  0  0
    9.7067   -9.4250    0.0000 N    0  0  0  0  0  0  0  0  0  0  0  0
    9.7062  -10.7559    0.0000 N    0  3  0  0  0  0  0  0  0  0  0  0
    9.7181  -12.0831    0.0000 N    0  5  0  0  0  0  0  0  0  0  0  0
  1  2  1  0  0  0  0
  1  3  2  0  0  0  0
  2  4  2  0  0  0  0
  3  5  1  0  0  0  0
  4  6  1  0  0  0  0
  5  6  2  0  0  0  0
  7  8  1  0  0  0  0
  7  9  2  0  0  0  0
  8 10  2  0  0  0  0
  9 11  1  0  0  0  0
 10 12  1  0  0  0  0
 11 12  2  0  0  0  0
 13 14  1  0  0  0  0
 13 15  2  0  0  0  0
 14 16  2  0  0  0  0
 15 17  1  0  0  0  0
 16 18  1  0  0  0  0
 17 18  2  0  0  0  0
 19 20  1  0  0  0  0
 19 21  2  0  0  0  0
 20 22  2  0  0  0  0
 21 23  1  0  0  0  0
 22 24  1  0  0  0  0
 23 24  2  0  0  0  0
 25 26  1  0  0  0  0
 25 27  2  0  0  0  0
 26 28  2  0  0  0  0
 27 29  1  0  0  0  0
 28 30  1  0  0  0  0
 29 30  2  0  0  0  0
 31 32  1  0  0  0  0
 32 33  2  0  0  0  0
 31 34  1  0  0  0  0
 35 36  1  0  0  0  0
 35 37  2  0  0  0  0
 36 38  2  0  0  0  0
 37 39  1  0  0  0  0
 38 40  1  0  0  0  0
 39 40  2  0  0  0  0
 34 35  1  0  0  0  0
 41 42  1  0  0  0  0
 41 43  2  0  0  0  0
 42 44  2  0  0  0  0
 43 45  1  0  0  0  0
 44 46  1  0  0  0  0
 45 46  2  0  0  0  0
 34 41  1  0  0  0  0
 27 34  1  0  0  0  0
 31 47  1  0  0  0  0
 31 48  1  0  0  0  0
 49 50  1  0  0  0  0
 49 51  2  0  0  0  0
 50 52  2  0  0  0  0
 51 53  1  0  0  0  0
 52 54  1  0  0  0  0
 53 54  2  0  0  0  0
 47 52  1  0  0  0  0
 55 56  1  0  0  0  0
 55 57  2  0  0  0  0
 56 58  2  0  0  0  0
 57 59  1  0  0  0  0
 58 60  1  0  0  0  0
 59 60  2  0  0  0  0
 47 58  1  0  0  0  0
 20 47  1  0  0  0  0
 13 48  1  0  0  0  0
  7 48  1  0  0  0  0
  3 48  1  0  0  0  0
 61 62  1  0  0  0  0
 61 63  2  0  0  0  0
 62 64  2  0  0  0  0
 63 65  1  0  0  0  0
 64 66  1  0  0  0  0
 65 66  2  0  0  0  0
 31 61  1  0  0  0  0
 67 68  2  0  0  0  0
 68 69  2  0  0  0  0
 31 67  1  0  0  0  0
M  END
> <NMREDATA_VERSION>
1.1

> <NMREDATA_LEVEL>
0

> <NMREDATA_SOLVENT>
DCCl3

> <NMREDATA_TEMPERATURE>
300

> <NMREDATA_FORMULA>
C59H54N4O2P3Rh

> <NMREDATA_SMILES>
N=N=N[Rh](P(c1ccccc1)(c1ccccc1)c1ccccc1)(P(c1ccccc1)(c1ccccc1)c1ccccc1)(P(c1ccccc1)(c1ccccc1)c1ccccc1)(c1ccccn1)[O]=O

> <NMREDATA_ASSIGNMENT>
Rh31, 3363.00, 31

> <NMREDATA_1D_103Rh>
3363.00, L=Rh31

$$$$

  ACD/LABS04012415102D

 69 78  0  0  0  0  0  0  0  0  1 V2000
   11.1344  -16.8636    0.0000 C    0  0  0  0  0  0  0  0  0  0  0  0
   11.3665  -18.1649    0.0000 C    0  0  0  0  0  0  0  0  0  0  0  0
   12.1480  -15.9948    0.0000 C    0  0  0  0  0  0  0  0  0  0  0  0
   12.6181  -18.6213    0.0000 C    0  0  0  0  0  0  0  0  0  0  0  0
   13.4001  -16.4514    0.0000 C    0  0  0  0  0  0  0  0  0  0  0  0
   13.6394  -17.7568    0.0000 C    0  0  0  0  0  0  0  0  0  0  0  0
   10.6033  -14.9286    0.0000 C    0  0  0  0  0  0  0  0  0  0  0  0
    9.7471  -13.9121    0.0000 C    0  0  0  0  0  0  0  0  0  0  0  0
   10.1588  -16.1775    0.0000 C    0  0  0  0  0  0  0  0  0  0  0  0
    8.4419  -14.1521    0.0000 C    0  0  0  0  0  0  0  0  0  0  0  0
    8.8457  -16.4124    0.0000 C    0  0  0  0  0  0  0  0  0  0  0  0
    7.9972  -15.4003    0.0000 C    0  0  0  0  0  0  0  0  0  0  0  0
   13.2218  -14.4545    0.0000 C    0  0  0  0  0  0  0  0  0  0  0  0
   14.0785  -15.4713    0.0000 C    0  0  0  0  0  0  0  0  0  0  0  0
   13.6785  -13.2024    0.0000 C    0  0  0  0  0  0  0  0  0  0  0  0
   15.3919  -15.2360    0.0000 C    0  0  0  0  0  0  0  0  0  0  0  0
   14.9795  -12.9708    0.0000 C    0  0  0  0  0  0  0  0  0  0  0  0
   15.8406  -13.9799    0.0000 C    0  0  0  0  0  0  0  0  0  0  0  0
   17.0159   -4.1236    0.0000 C    0  0  0  0  0  0  0  0  0  0  0  0
   15.8635   -4.7895    0.0000 C    0  0  0  0  0  0  0  0  0  0  0  0
   18.1677   -4.7886    0.0000 C    0  0  0  0  0  0  0  0  0  0  0  0
   15.8633   -6.1200    0.0000 C    0  0  0  0  0  0  0  0  0  0  0  0
   18.1671   -6.1195    0.0000 C    0  0  0  0  0  0  0  0  0  0  0  0
   17.0151   -6.7850    0.0000 C    0  0  0  0  0  0  0  0  0  0  0  0
   13.1686   -7.4724    0.0000 C    0  0  0  0  0  0  0  0  0  0  0  0
   13.6208   -6.2279    0.0000 C    0  0  0  0  0  0  0  0  0  0  0  0
   14.0171   -8.4845    0.0000 C    0  0  0  0  0  0  0  0  0  0  0  0
   14.9180   -5.9839    0.0000 C    0  0  0  0  0  0  0  0  0  0  0  0
   15.3305   -8.2491    0.0000 C    0  0  0  0  0  0  0  0  0  0  0  0
   15.7747   -7.0007    0.0000 C    0  0  0  0  0  0  0  0  0  0  0  0
   10.8514   -8.7546    0.0000 Rh   0  0  0  0  0  0  0  0  0  0  0  0
   10.6163   -7.4419    0.0000 O    0  0  0  0  0  0  0  0  0  0  0  0
   11.6284   -6.5934    0.0000 O    0  0  0  0  0  0  0  0  0  0  0  0
   13.5731   -9.7324    0.0000 P    0  0  0  0  0  5  0  0  0  0  0  0
   12.9154  -10.8884    0.0000 C    0  0  0  0  0  0  0  0  0  0  0  0
   13.3775  -12.1276    0.0000 C    0  0  0  0  0  0  0  0  0  0  0  0
   11.6106  -10.6676    0.0000 C    0  0  0  0  0  0  0  0  0  0  0  0
   12.5291  -13.1536    0.0000 C    0  0  0  0  0  0  0  0  0  0  0  0
   10.7626  -11.6931    0.0000 C    0  0  0  0  0  0  0  0  0  0  0  0
   11.2192  -12.9395    0.0000 C    0  0  0  0  0  0  0  0  0  0  0  0
   14.8215  -10.1766    0.0000 C    0  0  0  0  0  0  0  0  0  0  0  0
   15.8336   -9.3281    0.0000 C    0  0  0  0  0  0  0  0  0  0  0  0
   15.0564  -11.4897    0.0000 C    0  0  0  0  0  0  0  0  0  0  0  0
   17.0853   -9.7845    0.0000 C    0  0  0  0  0  0  0  0  0  0  0  0
   16.3125  -11.9384    0.0000 C    0  0  0  0  0  0  0  0  0  0  0  0
   17.3246  -11.0899    0.0000 C    0  0  0  0  0  0  0  0  0  0  0  0
   14.7199   -4.1293    0.0000 P    0  0  0  0  0  0  0  0  0  0  0  0
   11.9164  -14.6938    0.0000 P    0  0  0  0  0  0  0  0  0  0  0  0
   12.4168   -1.4683    0.0000 C    0  0  0  0  0  0  0  0  0  0  0  0
   13.5686   -2.1333    0.0000 C    0  0  0  0  0  0  0  0  0  0  0  0
   11.2645   -2.1343    0.0000 C    0  0  0  0  0  0  0  0  0  0  0  0
   13.5681   -3.4643    0.0000 C    0  0  0  0  0  0  0  0  0  0  0  0
   11.2642   -3.4647    0.0000 C    0  0  0  0  0  0  0  0  0  0  0  0
   12.4160   -4.1297    0.0000 C    0  0  0  0  0  0  0  0  0  0  0  0
   15.3840   -0.6733    0.0000 C    0  0  0  0  0  0  0  0  0  0  0  0
   14.7190   -1.8251    0.0000 C    0  0  0  0  0  0  0  0  0  0  0  0
   16.7152   -0.6733    0.0000 C    0  0  0  0  0  0  0  0  0  0  0  0
   15.3849   -2.9775    0.0000 C    0  0  0  0  0  0  0  0  0  0  0  0
   17.3722   -1.8212    0.0000 C    0  0  0  0  0  0  0  0  0  0  0  0
   16.7072   -2.9730    0.0000 C    0  0  0  0  0  0  0  0  0  0  0  0
    9.5997   -8.2982    0.0000 C    0  0  0  0  0  0  0  0  0  0  0  0
    9.3676   -6.9969    0.0000 N    0  0  0  0  0  0  0  0  0  0  0  0
    8.5906   -9.1593    0.0000 C    0  0  0  0  0  0  0  0  0  0  0  0
    8.1160   -6.5405    0.0000 C    0  0  0  0  0  0  0  0  0  0  0  0
    7.3345   -8.7107    0.0000 C    0  0  0  0  0  0  0  0  0  0  0  0
    7.0991   -7.3973    0.0000 C    0  0  0  0  0  0  0  0  0  0  0  0
    9.7067   -9.4250    0.0000 N    0  0  0  0  0  0  0  0  0  0  0  0
    9.7062  -10.7559    0.0000 C    0  0  0  0  0  0  0  0  0  0  0  0
    9.7181  -12.0831    0.0000 O    0  0  0  0  0  0  0  0  0  0  0  0
  1  2  1  0  0  0  0
  1  3  2  0  0  0  0
  2  4  2  0  0  0  0
  3  5  1  0  0  0  0
  4  6  1  0  0  0  0
  5  6  2  0  0  0  0
  7  8  1  0  0  0  0
  7  9  2  0  0  0  0
  8 10  2  0  0  0  0
  9 11  1  0  0  0  0
 10 12  1  0  0  0  0
 11 12  2  0  0  0  0
 13 14  1  0  0  0  0
 13 15  2  0  0  0  0
 14 16  2  0  0  0  0
 15 17  1  0  0  0  0
 16 18  1  0  0  0  0
 17 18  2  0  0  0  0
 19 20  1  0  0  0  0
 19 21  2  0  0  0  0
 20 22  2  0  0  0  0
 21 23  1  0  0  0  0
 22 24  1  0  0  0  0
 23 24  2  0  0  0  0
 25 26  1  0  0  0  0
 25 27  2  0  0  0  0
 26 28  2  0  0  0  0
 27 29  1  0  0  0  0
 28 30  1  0  0  0  0
 29 30  2  0  0  0  0
 31 32  1  0  0  0  0
 32 33  2  0  0  0  0
 31 34  1  0  0  0  0
 35 36  1  0  0  0  0
 35 37  2  0  0  0  0
 36 38  2  0  0  0  0
 37 39  1  0  0  0  0
 38 40  1  0  0  0  0
 39 40  2  0  0  0  0
 34 35  1  0  0  0  0
 41 42  1  0  0  0  0
 41 43  2  0  0  0  0
 42 44  2  0  0  0  0
 43 45  1  0  0  0  0
 44 46  1  0  0  0  0
 45 46  2  0  0  0  0
 34 41  1  0  0  0  0
 27 34  1  0  0  0  0
 31 47  1  0  0  0  0
 31 48  1  0  0  0  0
 49 50  1  0  0  0  0
 49 51  2  0  0  0  0
 50 52  2  0  0  0  0
 51 53  1  0  0  0  0
 52 54  1  0  0  0  0
 53 54  2  0  0  0  0
 47 52  1  0  0  0  0
 55 56  1  0  0  0  0
 55 57  2  0  0  0  0
 56 58  2  0  0  0  0
 57 59  1  0  0  0  0
 58 60  1  0  0  0  0
 59 60  2  0  0  0  0
 47 58  1  0  0  0  0
 20 47  1  0  0  0  0
 13 48  1  0  0  0  0
  7 48  1  0  0  0  0
  3 48  1  0  0  0  0
 61 62  1  0  0  0  0
 61 63  2  0  0  0  0
 62 64  2  0  0  0  0
 63 65  1  0  0  0  0
 64 66  1  0  0  0  0
 65 66  2  0  0  0  0
 31 61  1  0  0  0  0
 67 68  2  0  0  0  0
 68 69  2  0  0  0  0
 31 67  1  0  0  0  0
M  END
> <NMREDATA_VERSION>
1.1

> <NMREDATA_LEVEL>
0

> <NMREDATA_SOLVENT>
DCCl3

> <NMREDATA_TEMPERATURE>
300

> <NMREDATA_FORMULA>
C60H52N2O3P3Rh

> <NMREDATA_SMILES>
O=C=N[Rh](P(c1ccccc1)(c1ccccc1)c1ccccc1)(P(c1ccccc1)(c1ccccc1)c1ccccc1)(P(c1ccccc1)(c1ccccc1)c1ccccc1)(c1ccccn1)[O]=O

> <NMREDATA_ASSIGNMENT>
Rh31, 3342.00, 31

> <NMREDATA_1D_103Rh>
3342.00, L=Rh31

$$$$

  ACD/LABS04012415102D

 69 78  0  0  0  0  0  0  0  0  1 V2000
   11.1344  -16.8636    0.0000 C    0  0  0  0  0  0  0  0  0  0  0  0
   11.3665  -18.1649    0.0000 C    0  0  0  0  0  0  0  0  0  0  0  0
   12.1480  -15.9948    0.0000 C    0  0  0  0  0  0  0  0  0  0  0  0
   12.6181  -18.6213    0.0000 C    0  0  0  0  0  0  0  0  0  0  0  0
   13.4001  -16.4514    0.0000 C    0  0  0  0  0  0  0  0  0  0  0  0
   13.6394  -17.7568    0.0000 C    0  0  0  0  0  0  0  0  0  0  0  0
   10.6033  -14.9286    0.0000 C    0  0  0  0  0  0  0  0  0  0  0  0
    9.7471  -13.9121    0.0000 C    0  0  0  0  0  0  0  0  0  0  0  0
   10.1588  -16.1775    0.0000 C    0  0  0  0  0  0  0  0  0  0  0  0
    8.4419  -14.1521    0.0000 C    0  0  0  0  0  0  0  0  0  0  0  0
    8.8457  -16.4124    0.0000 C    0  0  0  0  0  0  0  0  0  0  0  0
    7.9972  -15.4003    0.0000 C    0  0  0  0  0  0  0  0  0  0  0  0
   13.2218  -14.4545    0.0000 C    0  0  0  0  0  0  0  0  0  0  0  0
   14.0785  -15.4713    0.0000 C    0  0  0  0  0  0  0  0  0  0  0  0
   13.6785  -13.2024    0.0000 C    0  0  0  0  0  0  0  0  0  0  0  0
   15.3919  -15.2360    0.0000 C    0  0  0  0  0  0  0  0  0  0  0  0
   14.9795  -12.9708    0.0000 C    0  0  0  0  0  0  0  0  0  0  0  0
   15.8406  -13.9799    0.0000 C    0  0  0  0  0  0  0  0  0  0  0  0
   17.0159   -4.1236    0.0000 C    0  0  0  0  0  0  0  0  0  0  0  0
   15.8635   -4.7895    0.0000 C    0  0  0  0  0  0  0  0  0  0  0  0
   18.1677   -4.7886    0.0000 C    0  0  0  0  0  0  0  0  0  0  0  0
   15.8633   -6.1200    0.0000 C    0  0  0  0  0  0  0  0  0  0  0  0
   18.1671   -6.1195    0.0000 C    0  0  0  0  0  0  0  0  0  0  0  0
   17.0151   -6.7850    0.0000 C    0  0  0  0  0  0  0  0  0  0  0  0
   13.1686   -7.4724    0.0000 C    0  0  0  0  0  0  0  0  0  0  0  0
   13.6208   -6.2279    0.0000 C    0  0  0  0  0  0  0  0  0  0  0  0
   14.0171   -8.4845    0.0000 C    0  0  0  0  0  0  0  0  0  0  0  0
   14.9180   -5.9839    0.0000 C    0  0  0  0  0  0  0  0  0  0  0  0
   15.3305   -8.2491    0.0000 C    0  0  0  0  0  0  0  0  0  0  0  0
   15.7747   -7.0007    0.0000 C    0  0  0  0  0  0  0  0  0  0  0  0
   10.8514   -8.7546    0.0000 Rh   0  0  0  0  0  0  0  0  0  0  0  0
   10.6163   -7.4419    0.0000 O    0  0  0  0  0  0  0  0  0  0  0  0
   11.6284   -6.5934    0.0000 O    0  0  0  0  0  0  0  0  0  0  0  0
   13.5731   -9.7324    0.0000 P    0  0  0  0  0  5  0  0  0  0  0  0
   12.9154  -10.8884    0.0000 C    0  0  0  0  0  0  0  0  0  0  0  0
   13.3775  -12.1276    0.0000 C    0  0  0  0  0  0  0  0  0  0  0  0
   11.6106  -10.6676    0.0000 C    0  0  0  0  0  0  0  0  0  0  0  0
   12.5291  -13.1536    0.0000 C    0  0  0  0  0  0  0  0  0  0  0  0
   10.7626  -11.6931    0.0000 C    0  0  0  0  0  0  0  0  0  0  0  0
   11.2192  -12.9395    0.0000 C    0  0  0  0  0  0  0  0  0  0  0  0
   14.8215  -10.1766    0.0000 C    0  0  0  0  0  0  0  0  0  0  0  0
   15.8336   -9.3281    0.0000 C    0  0  0  0  0  0  0  0  0  0  0  0
   15.0564  -11.4897    0.0000 C    0  0  0  0  0  0  0  0  0  0  0  0
   17.0853   -9.7845    0.0000 C    0  0  0  0  0  0  0  0  0  0  0  0
   16.3125  -11.9384    0.0000 C    0  0  0  0  0  0  0  0  0  0  0  0
   17.3246  -11.0899    0.0000 C    0  0  0  0  0  0  0  0  0  0  0  0
   14.7199   -4.1293    0.0000 P    0  0  0  0  0  0  0  0  0  0  0  0
   11.9164  -14.6938    0.0000 P    0  0  0  0  0  0  0  0  0  0  0  0
   12.4168   -1.4683    0.0000 C    0  0  0  0  0  0  0  0  0  0  0  0
   13.5686   -2.1333    0.0000 C    0  0  0  0  0  0  0  0  0  0  0  0
   11.2645   -2.1343    0.0000 C    0  0  0  0  0  0  0  0  0  0  0  0
   13.5681   -3.4643    0.0000 C    0  0  0  0  0  0  0  0  0  0  0  0
   11.2642   -3.4647    0.0000 C    0  0  0  0  0  0  0  0  0  0  0  0
   12.4160   -4.1297    0.0000 C    0  0  0  0  0  0  0  0  0  0  0  0
   15.3840   -0.6733    0.0000 C    0  0  0  0  0  0  0  0  0  0  0  0
   14.7190   -1.8251    0.0000 C    0  0  0  0  0  0  0  0  0  0  0  0
   16.7152   -0.6733    0.0000 C    0  0  0  0  0  0  0  0  0  0  0  0
   15.3849   -2.9775    0.0000 C    0  0  0  0  0  0  0  0  0  0  0  0
   17.3722   -1.8212    0.0000 C    0  0  0  0  0  0  0  0  0  0  0  0
   16.7072   -2.9730    0.0000 C    0  0  0  0  0  0  0  0  0  0  0  0
    9.5997   -8.2982    0.0000 C    0  0  0  0  0  0  0  0  0  0  0  0
    9.3676   -6.9969    0.0000 N    0  0  0  0  0  0  0  0  0  0  0  0
    8.5906   -9.1593    0.0000 C    0  0  0  0  0  0  0  0  0  0  0  0
    8.1160   -6.5405    0.0000 C    0  0  0  0  0  0  0  0  0  0  0  0
    7.3345   -8.7107    0.0000 C    0  0  0  0  0  0  0  0  0  0  0  0
    7.0991   -7.3973    0.0000 C    0  0  0  0  0  0  0  0  0  0  0  0
    9.7067   -9.4250    0.0000 N    0  0  0  0  0  0  0  0  0  0  0  0
    9.7062  -10.7559    0.0000 C    0  0  0  0  0  0  0  0  0  0  0  0
    9.7181  -12.0831    0.0000 S    0  0  0  0  0  0  0  0  0  0  0  0
  1  2  1  0  0  0  0
  1  3  2  0  0  0  0
  2  4  2  0  0  0  0
  3  5  1  0  0  0  0
  4  6  1  0  0  0  0
  5  6  2  0  0  0  0
  7  8  1  0  0  0  0
  7  9  2  0  0  0  0
  8 10  2  0  0  0  0
  9 11  1  0  0  0  0
 10 12  1  0  0  0  0
 11 12  2  0  0  0  0
 13 14  1  0  0  0  0
 13 15  2  0  0  0  0
 14 16  2  0  0  0  0
 15 17  1  0  0  0  0
 16 18  1  0  0  0  0
 17 18  2  0  0  0  0
 19 20  1  0  0  0  0
 19 21  2  0  0  0  0
 20 22  2  0  0  0  0
 21 23  1  0  0  0  0
 22 24  1  0  0  0  0
 23 24  2  0  0  0  0
 25 26  1  0  0  0  0
 25 27  2  0  0  0  0
 26 28  2  0  0  0  0
 27 29  1  0  0  0  0
 28 30  1  0  0  0  0
 29 30  2  0  0  0  0
 31 32  1  0  0  0  0
 32 33  2  0  0  0  0
 31 34  1  0  0  0  0
 35 36  1  0  0  0  0
 35 37  2  0  0  0  0
 36 38  2  0  0  0  0
 37 39  1  0  0  0  0
 38 40  1  0  0  0  0
 39 40  2  0  0  0  0
 34 35  1  0  0  0  0
 41 42  1  0  0  0  0
 41 43  2  0  0  0  0
 42 44  2  0  0  0  0
 43 45  1  0  0  0  0
 44 46  1  0  0  0  0
 45 46  2  0  0  0  0
 34 41  1  0  0  0  0
 27 34  1  0  0  0  0
 31 47  1  0  0  0  0
 31 48  1  0  0  0  0
 49 50  1  0  0  0  0
 49 51  2  0  0  0  0
 50 52  2  0  0  0  0
 51 53  1  0  0  0  0
 52 54  1  0  0  0  0
 53 54  2  0  0  0  0
 47 52  1  0  0  0  0
 55 56  1  0  0  0  0
 55 57  2  0  0  0  0
 56 58  2  0  0  0  0
 57 59  1  0  0  0  0
 58 60  1  0  0  0  0
 59 60  2  0  0  0  0
 47 58  1  0  0  0  0
 20 47  1  0  0  0  0
 13 48  1  0  0  0  0
  7 48  1  0  0  0  0
  3 48  1  0  0  0  0
 61 62  1  0  0  0  0
 61 63  2  0  0  0  0
 62 64  2  0  0  0  0
 63 65  1  0  0  0  0
 64 66  1  0  0  0  0
 65 66  2  0  0  0  0
 31 61  1  0  0  0  0
 67 68  2  0  0  0  0
 68 69  2  0  0  0  0
 31 67  1  0  0  0  0
M  END
> <NMREDATA_VERSION>
1.1

> <NMREDATA_LEVEL>
0

> <NMREDATA_SOLVENT>
DCCl3

> <NMREDATA_TEMPERATURE>
300

> <NMREDATA_FORMULA>
C60H52N2O2P3RhS

> <NMREDATA_SMILES>
S=C=N[Rh](P(c1ccccc1)(c1ccccc1)c1ccccc1)(P(c1ccccc1)(c1ccccc1)c1ccccc1)(P(c1ccccc1)(c1ccccc1)c1ccccc1)(c1ccccn1)[O]=O

> <NMREDATA_ASSIGNMENT>
Rh31, 3237.00, 31

> <NMREDATA_1D_103Rh>
3237.00, L=Rh31

$$$$

  ACD/LABS04012415102D

 71 80  0  0  0  0  0  0  0  0  1 V2000
   11.1344  -16.8636    0.0000 C    0  0  0  0  0  0  0  0  0  0  0  0
   11.3665  -18.1649    0.0000 C    0  0  0  0  0  0  0  0  0  0  0  0
   12.1480  -15.9948    0.0000 C    0  0  0  0  0  0  0  0  0  0  0  0
   12.6181  -18.6213    0.0000 C    0  0  0  0  0  0  0  0  0  0  0  0
   13.4001  -16.4514    0.0000 C    0  0  0  0  0  0  0  0  0  0  0  0
   13.6394  -17.7568    0.0000 C    0  0  0  0  0  0  0  0  0  0  0  0
   10.6033  -14.9286    0.0000 C    0  0  0  0  0  0  0  0  0  0  0  0
    9.7471  -13.9121    0.0000 C    0  0  0  0  0  0  0  0  0  0  0  0
   10.1588  -16.1775    0.0000 C    0  0  0  0  0  0  0  0  0  0  0  0
    8.4419  -14.1521    0.0000 C    0  0  0  0  0  0  0  0  0  0  0  0
    8.8457  -16.4124    0.0000 C    0  0  0  0  0  0  0  0  0  0  0  0
    7.9972  -15.4003    0.0000 C    0  0  0  0  0  0  0  0  0  0  0  0
   13.2218  -14.4545    0.0000 C    0  0  0  0  0  0  0  0  0  0  0  0
   14.0785  -15.4713    0.0000 C    0  0  0  0  0  0  0  0  0  0  0  0
   13.6785  -13.2024    0.0000 C    0  0  0  0  0  0  0  0  0  0  0  0
   15.3919  -15.2360    0.0000 C    0  0  0  0  0  0  0  0  0  0  0  0
   14.9795  -12.9708    0.0000 C    0  0  0  0  0  0  0  0  0  0  0  0
   15.8406  -13.9799    0.0000 C    0  0  0  0  0  0  0  0  0  0  0  0
   17.0159   -4.1236    0.0000 C    0  0  0  0  0  0  0  0  0  0  0  0
   15.8635   -4.7895    0.0000 C    0  0  0  0  0  0  0  0  0  0  0  0
   18.1677   -4.7886    0.0000 C    0  0  0  0  0  0  0  0  0  0  0  0
   15.8633   -6.1200    0.0000 C    0  0  0  0  0  0  0  0  0  0  0  0
   18.1671   -6.1195    0.0000 C    0  0  0  0  0  0  0  0  0  0  0  0
   17.0151   -6.7850    0.0000 C    0  0  0  0  0  0  0  0  0  0  0  0
   13.1686   -7.4724    0.0000 C    0  0  0  0  0  0  0  0  0  0  0  0
   13.6208   -6.2279    0.0000 C    0  0  0  0  0  0  0  0  0  0  0  0
   14.0171   -8.4845    0.0000 C    0  0  0  0  0  0  0  0  0  0  0  0
   14.9180   -5.9839    0.0000 C    0  0  0  0  0  0  0  0  0  0  0  0
   15.3305   -8.2491    0.0000 C    0  0  0  0  0  0  0  0  0  0  0  0
   15.7747   -7.0007    0.0000 C    0  0  0  0  0  0  0  0  0  0  0  0
   10.8514   -8.7546    0.0000 Rh   0  0  0  0  0  0  0  0  0  0  0  0
   10.6163   -7.4419    0.0000 O    0  0  0  0  0  0  0  0  0  0  0  0
   11.6284   -6.5934    0.0000 O    0  0  0  0  0  0  0  0  0  0  0  0
   13.5731   -9.7324    0.0000 P    0  0  0  0  0  5  0  0  0  0  0  0
   12.9154  -10.8884    0.0000 C    0  0  0  0  0  0  0  0  0  0  0  0
   13.3775  -12.1276    0.0000 C    0  0  0  0  0  0  0  0  0  0  0  0
   11.6106  -10.6676    0.0000 C    0  0  0  0  0  0  0  0  0  0  0  0
   12.5291  -13.1536    0.0000 C    0  0  0  0  0  0  0  0  0  0  0  0
   10.7626  -11.6931    0.0000 C    0  0  0  0  0  0  0  0  0  0  0  0
   11.2192  -12.9395    0.0000 C    0  0  0  0  0  0  0  0  0  0  0  0
   14.8215  -10.1766    0.0000 C    0  0  0  0  0  0  0  0  0  0  0  0
   15.8336   -9.3281    0.0000 C    0  0  0  0  0  0  0  0  0  0  0  0
   15.0564  -11.4897    0.0000 C    0  0  0  0  0  0  0  0  0  0  0  0
   17.0853   -9.7845    0.0000 C    0  0  0  0  0  0  0  0  0  0  0  0
   16.3125  -11.9384    0.0000 C    0  0  0  0  0  0  0  0  0  0  0  0
   17.3246  -11.0899    0.0000 C    0  0  0  0  0  0  0  0  0  0  0  0
   14.7199   -4.1293    0.0000 P    0  0  0  0  0  0  0  0  0  0  0  0
   11.9164  -14.6938    0.0000 P    0  0  0  0  0  0  0  0  0  0  0  0
   12.4168   -1.4683    0.0000 C    0  0  0  0  0  0  0  0  0  0  0  0
   13.5686   -2.1333    0.0000 C    0  0  0  0  0  0  0  0  0  0  0  0
   11.2645   -2.1343    0.0000 C    0  0  0  0  0  0  0  0  0  0  0  0
   13.5681   -3.4643    0.0000 C    0  0  0  0  0  0  0  0  0  0  0  0
   11.2642   -3.4647    0.0000 C    0  0  0  0  0  0  0  0  0  0  0  0
   12.4160   -4.1297    0.0000 C    0  0  0  0  0  0  0  0  0  0  0  0
   15.3840   -0.6733    0.0000 C    0  0  0  0  0  0  0  0  0  0  0  0
   14.7190   -1.8251    0.0000 C    0  0  0  0  0  0  0  0  0  0  0  0
   16.7152   -0.6733    0.0000 C    0  0  0  0  0  0  0  0  0  0  0  0
   15.3849   -2.9775    0.0000 C    0  0  0  0  0  0  0  0  0  0  0  0
   17.3722   -1.8212    0.0000 C    0  0  0  0  0  0  0  0  0  0  0  0
   16.7072   -2.9730    0.0000 C    0  0  0  0  0  0  0  0  0  0  0  0
    9.5997   -8.2982    0.0000 C    0  0  0  0  0  0  0  0  0  0  0  0
    9.3676   -6.9969    0.0000 N    0  0  0  0  0  0  0  0  0  0  0  0
    8.5906   -9.1593    0.0000 C    0  0  0  0  0  0  0  0  0  0  0  0
    8.1160   -6.5405    0.0000 C    0  0  0  0  0  0  0  0  0  0  0  0
    7.3345   -8.7107    0.0000 C    0  0  0  0  0  0  0  0  0  0  0  0
    7.0991   -7.3973    0.0000 C    0  0  0  0  0  0  0  0  0  0  0  0
    9.7067   -9.4250    0.0000 N    0  0  0  0  0  0  0  0  0  0  0  0
    9.7150  -10.7549    0.0000 C    0  0  0  0  0  0  0  0  0  0  0  0
    9.7233  -12.0849    0.0000 N    0  0  0  0  0  0  0  0  0  0  0  0
    8.5508   -8.7671    0.0000 C    0  0  0  0  0  0  0  0  0  0  0  0
    7.3949   -8.1093    0.0000 N    0  0  0  0  0  0  0  0  0  0  0  0
  1  2  1  0  0  0  0
  1  3  2  0  0  0  0
  2  4  2  0  0  0  0
  3  5  1  0  0  0  0
  4  6  1  0  0  0  0
  5  6  2  0  0  0  0
  7  8  1  0  0  0  0
  7  9  2  0  0  0  0
  8 10  2  0  0  0  0
  9 11  1  0  0  0  0
 10 12  1  0  0  0  0
 11 12  2  0  0  0  0
 13 14  1  0  0  0  0
 13 15  2  0  0  0  0
 14 16  2  0  0  0  0
 15 17  1  0  0  0  0
 16 18  1  0  0  0  0
 17 18  2  0  0  0  0
 19 20  1  0  0  0  0
 19 21  2  0  0  0  0
 20 22  2  0  0  0  0
 21 23  1  0  0  0  0
 22 24  1  0  0  0  0
 23 24  2  0  0  0  0
 25 26  1  0  0  0  0
 25 27  2  0  0  0  0
 26 28  2  0  0  0  0
 27 29  1  0  0  0  0
 28 30  1  0  0  0  0
 29 30  2  0  0  0  0
 31 32  1  0  0  0  0
 32 33  2  0  0  0  0
 31 34  1  0  0  0  0
 35 36  1  0  0  0  0
 35 37  2  0  0  0  0
 36 38  2  0  0  0  0
 37 39  1  0  0  0  0
 38 40  1  0  0  0  0
 39 40  2  0  0  0  0
 34 35  1  0  0  0  0
 41 42  1  0  0  0  0
 41 43  2  0  0  0  0
 42 44  2  0  0  0  0
 43 45  1  0  0  0  0
 44 46  1  0  0  0  0
 45 46  2  0  0  0  0
 34 41  1  0  0  0  0
 27 34  1  0  0  0  0
 31 47  1  0  0  0  0
 31 48  1  0  0  0  0
 49 50  1  0  0  0  0
 49 51  2  0  0  0  0
 50 52  2  0  0  0  0
 51 53  1  0  0  0  0
 52 54  1  0  0  0  0
 53 54  2  0  0  0  0
 47 52  1  0  0  0  0
 55 56  1  0  0  0  0
 55 57  2  0  0  0  0
 56 58  2  0  0  0  0
 57 59  1  0  0  0  0
 58 60  1  0  0  0  0
 59 60  2  0  0  0  0
 47 58  1  0  0  0  0
 20 47  1  0  0  0  0
 13 48  1  0  0  0  0
  7 48  1  0  0  0  0
  3 48  1  0  0  0  0
 61 62  1  0  0  0  0
 61 63  2  0  0  0  0
 62 64  2  0  0  0  0
 63 65  1  0  0  0  0
 64 66  1  0  0  0  0
 65 66  2  0  0  0  0
 31 61  1  0  0  0  0
 31 67  1  0  0  0  0
 68 69  3  0  0  0  0
 67 68  1  0  0  0  0
 70 71  3  0  0  0  0
 67 70  1  0  0  0  0
M  END
> <NMREDATA_VERSION>
1.1

> <NMREDATA_LEVEL>
0

> <NMREDATA_SOLVENT>
DCCl3

> <NMREDATA_TEMPERATURE>
300

> <NMREDATA_FORMULA>
C61H52N4O2P3Rh

> <NMREDATA_SMILES>
N#CN([Rh](P(c1ccccc1)(c1ccccc1)c1ccccc1)(P(c1ccccc1)(c1ccccc1)c1ccccc1)(P(c1ccccc1)(c1ccccc1)c1ccccc1)(c1ccccn1)[O]=O)C#N

> <NMREDATA_ASSIGNMENT>
Rh31, 3261.00, 31

> <NMREDATA_1D_103Rh>
3261.00, L=Rh31

$$$$

  ACD/LABS04012415112D

 87 99  0  0  0  0  0  0  0  0  1 V2000
    6.0873  -12.3466    0.0000 C    0  0  0  0  0  0  0  0  0  0  0  0
    6.0873  -13.6766    0.0000 C    0  0  0  0  0  0  0  0  0  0  0  0
    4.9354  -11.6816    0.0000 C    0  0  0  0  0  0  0  0  0  0  0  0
    4.9354  -14.3416    0.0000 C    0  0  0  0  0  0  0  0  0  0  0  0
    3.7836  -12.3466    0.0000 C    0  0  0  0  0  0  0  0  0  0  0  0
    3.7836  -13.6766    0.0000 C    0  0  0  0  0  0  0  0  0  0  0  0
   11.1344  -16.8636    0.0000 C    0  0  0  0  0  0  0  0  0  0  0  0
   11.3665  -18.1649    0.0000 C    0  0  0  0  0  0  0  0  0  0  0  0
   12.1480  -15.9948    0.0000 C    0  0  0  0  0  0  0  0  0  0  0  0
   12.6181  -18.6213    0.0000 C    0  0  0  0  0  0  0  0  0  0  0  0
   13.4001  -16.4514    0.0000 C    0  0  0  0  0  0  0  0  0  0  0  0
   13.6394  -17.7568    0.0000 C    0  0  0  0  0  0  0  0  0  0  0  0
   10.6033  -14.9286    0.0000 C    0  0  0  0  0  0  0  0  0  0  0  0
    9.7471  -13.9121    0.0000 C    0  0  0  0  0  0  0  0  0  0  0  0
   10.1588  -16.1775    0.0000 C    0  0  0  0  0  0  0  0  0  0  0  0
    8.4419  -14.1521    0.0000 C    0  0  0  0  0  0  0  0  0  0  0  0
    8.8457  -16.4124    0.0000 C    0  0  0  0  0  0  0  0  0  0  0  0
    7.9972  -15.4003    0.0000 C    0  0  0  0  0  0  0  0  0  0  0  0
   13.2218  -14.4545    0.0000 C    0  0  0  0  0  0  0  0  0  0  0  0
   14.0785  -15.4713    0.0000 C    0  0  0  0  0  0  0  0  0  0  0  0
   13.6785  -13.2024    0.0000 C    0  0  0  0  0  0  0  0  0  0  0  0
   15.3919  -15.2360    0.0000 C    0  0  0  0  0  0  0  0  0  0  0  0
   14.9795  -12.9708    0.0000 C    0  0  0  0  0  0  0  0  0  0  0  0
   15.8406  -13.9799    0.0000 C    0  0  0  0  0  0  0  0  0  0  0  0
   17.0159   -4.1236    0.0000 C    0  0  0  0  0  0  0  0  0  0  0  0
   15.8635   -4.7895    0.0000 C    0  0  0  0  0  0  0  0  0  0  0  0
   18.1677   -4.7886    0.0000 C    0  0  0  0  0  0  0  0  0  0  0  0
   15.8633   -6.1200    0.0000 C    0  0  0  0  0  0  0  0  0  0  0  0
   18.1671   -6.1195    0.0000 C    0  0  0  0  0  0  0  0  0  0  0  0
   17.0151   -6.7850    0.0000 C    0  0  0  0  0  0  0  0  0  0  0  0
   13.1686   -7.4724    0.0000 C    0  0  0  0  0  0  0  0  0  0  0  0
   13.6208   -6.2279    0.0000 C    0  0  0  0  0  0  0  0  0  0  0  0
   14.0171   -8.4845    0.0000 C    0  0  0  0  0  0  0  0  0  0  0  0
   14.9180   -5.9839    0.0000 C    0  0  0  0  0  0  0  0  0  0  0  0
   15.3305   -8.2491    0.0000 C    0  0  0  0  0  0  0  0  0  0  0  0
   15.7747   -7.0007    0.0000 C    0  0  0  0  0  0  0  0  0  0  0  0
   10.8514   -8.7546    0.0000 Rh   0  0  0  0  0  0  0  0  0  0  0  0
   10.6163   -7.4419    0.0000 O    0  0  0  0  0  0  0  0  0  0  0  0
   11.6284   -6.5934    0.0000 O    0  0  0  0  0  0  0  0  0  0  0  0
   13.5731   -9.7324    0.0000 P    0  0  0  0  0  5  0  0  0  0  0  0
   12.9154  -10.8884    0.0000 C    0  0  0  0  0  0  0  0  0  0  0  0
   13.3775  -12.1276    0.0000 C    0  0  0  0  0  0  0  0  0  0  0  0
   11.6106  -10.6676    0.0000 C    0  0  0  0  0  0  0  0  0  0  0  0
   12.5291  -13.1536    0.0000 C    0  0  0  0  0  0  0  0  0  0  0  0
   10.7626  -11.6931    0.0000 C    0  0  0  0  0  0  0  0  0  0  0  0
   11.2192  -12.9395    0.0000 C    0  0  0  0  0  0  0  0  0  0  0  0
   14.8215  -10.1766    0.0000 C    0  0  0  0  0  0  0  0  0  0  0  0
   15.8336   -9.3281    0.0000 C    0  0  0  0  0  0  0  0  0  0  0  0
   15.0564  -11.4897    0.0000 C    0  0  0  0  0  0  0  0  0  0  0  0
   17.0853   -9.7845    0.0000 C    0  0  0  0  0  0  0  0  0  0  0  0
   16.3125  -11.9384    0.0000 C    0  0  0  0  0  0  0  0  0  0  0  0
   17.3246  -11.0899    0.0000 C    0  0  0  0  0  0  0  0  0  0  0  0
   14.7199   -4.1293    0.0000 P    0  0  0  0  0  0  0  0  0  0  0  0
   11.9164  -14.6938    0.0000 P    0  0  0  0  0  0  0  0  0  0  0  0
   12.4168   -1.4683    0.0000 C    0  0  0  0  0  0  0  0  0  0  0  0
   13.5686   -2.1333    0.0000 C    0  0  0  0  0  0  0  0  0  0  0  0
   11.2645   -2.1343    0.0000 C    0  0  0  0  0  0  0  0  0  0  0  0
   13.5681   -3.4643    0.0000 C    0  0  0  0  0  0  0  0  0  0  0  0
   11.2642   -3.4647    0.0000 C    0  0  0  0  0  0  0  0  0  0  0  0
   12.4160   -4.1297    0.0000 C    0  0  0  0  0  0  0  0  0  0  0  0
   15.3840   -0.6733    0.0000 C    0  0  0  0  0  0  0  0  0  0  0  0
   14.7190   -1.8251    0.0000 C    0  0  0  0  0  0  0  0  0  0  0  0
   16.7152   -0.6733    0.0000 C    0  0  0  0  0  0  0  0  0  0  0  0
   15.3849   -2.9775    0.0000 C    0  0  0  0  0  0  0  0  0  0  0  0
   17.3722   -1.8212    0.0000 C    0  0  0  0  0  0  0  0  0  0  0  0
   16.7072   -2.9730    0.0000 C    0  0  0  0  0  0  0  0  0  0  0  0
    9.5997   -8.2982    0.0000 C    0  0  0  0  0  0  0  0  0  0  0  0
    9.3676   -6.9969    0.0000 N    0  0  0  0  0  0  0  0  0  0  0  0
    8.5906   -9.1593    0.0000 C    0  0  0  0  0  0  0  0  0  0  0  0
    8.1160   -6.5405    0.0000 C    0  0  0  0  0  0  0  0  0  0  0  0
    7.3345   -8.7107    0.0000 C    0  0  0  0  0  0  0  0  0  0  0  0
    7.0991   -7.3973    0.0000 C    0  0  0  0  0  0  0  0  0  0  0  0
    9.8334   -9.6105    0.0000 N    0  0  0  0  0  0  0  0  0  0  0  0
    8.8155  -10.4665    0.0000 C    0  0  0  0  0  0  0  0  0  0  0  0
    7.8518  -11.1528    0.0000 B    0  0  0  0  0  0  0  0  0  0  0  0
    7.9782  -12.4768    0.0000 C    0  0  0  0  0  0  0  0  0  0  0  0
    9.1881  -13.0293    0.0000 C    0  0  0  0  0  0  0  0  0  0  0  0
    6.8948  -13.2483    0.0000 C    0  0  0  0  0  0  0  0  0  0  0  0
    9.3144  -14.3533    0.0000 C    0  0  0  0  0  0  0  0  0  0  0  0
    7.0212  -14.5723    0.0000 C    0  0  0  0  0  0  0  0  0  0  0  0
    8.2311  -15.1248    0.0000 C    0  0  0  0  0  0  0  0  0  0  0  0
    6.6420  -10.6003    0.0000 C    0  0  0  0  0  0  0  0  0  0  0  0
    5.5586  -11.3718    0.0000 C    0  0  0  0  0  0  0  0  0  0  0  0
    6.5155   -9.2762    0.0000 C    0  0  0  0  0  0  0  0  0  0  0  0
    4.3487  -10.8192    0.0000 C    0  0  0  0  0  0  0  0  0  0  0  0
    5.3057   -8.7237    0.0000 C    0  0  0  0  0  0  0  0  0  0  0  0
    4.2223   -9.4952    0.0000 C    0  0  0  0  0  0  0  0  0  0  0  0
  1  2  1  0  0  0  0
  1  3  2  0  0  0  0
  2  4  2  0  0  0  0
  3  5  1  0  0  0  0
  4  6  1  0  0  0  0
  5  6  2  0  0  0  0
  7  8  1  0  0  0  0
  7  9  2  0  0  0  0
  8 10  2  0  0  0  0
  9 11  1  0  0  0  0
 10 12  1  0  0  0  0
 11 12  2  0  0  0  0
 13 14  1  0  0  0  0
 13 15  2  0  0  0  0
 14 16  2  0  0  0  0
 15 17  1  0  0  0  0
 16 18  1  0  0  0  0
 17 18  2  0  0  0  0
 19 20  1  0  0  0  0
 19 21  2  0  0  0  0
 20 22  2  0  0  0  0
 21 23  1  0  0  0  0
 22 24  1  0  0  0  0
 23 24  2  0  0  0  0
 25 26  1  0  0  0  0
 25 27  2  0  0  0  0
 26 28  2  0  0  0  0
 27 29  1  0  0  0  0
 28 30  1  0  0  0  0
 29 30  2  0  0  0  0
 31 32  1  0  0  0  0
 31 33  2  0  0  0  0
 32 34  2  0  0  0  0
 33 35  1  0  0  0  0
 34 36  1  0  0  0  0
 35 36  2  0  0  0  0
 37 38  1  0  0  0  0
 38 39  2  0  0  0  0
 37 40  1  0  0  0  0
 41 42  1  0  0  0  0
 41 43  2  0  0  0  0
 42 44  2  0  0  0  0
 43 45  1  0  0  0  0
 44 46  1  0  0  0  0
 45 46  2  0  0  0  0
 40 41  1  0  0  0  0
 47 48  1  0  0  0  0
 47 49  2  0  0  0  0
 48 50  2  0  0  0  0
 49 51  1  0  0  0  0
 50 52  1  0  0  0  0
 51 52  2  0  0  0  0
 40 47  1  0  0  0  0
 33 40  1  0  0  0  0
 37 53  1  0  0  0  0
 37 54  1  0  0  0  0
 55 56  1  0  0  0  0
 55 57  2  0  0  0  0
 56 58  2  0  0  0  0
 57 59  1  0  0  0  0
 58 60  1  0  0  0  0
 59 60  2  0  0  0  0
 53 58  1  0  0  0  0
 61 62  1  0  0  0  0
 61 63  2  0  0  0  0
 62 64  2  0  0  0  0
 63 65  1  0  0  0  0
 64 66  1  0  0  0  0
 65 66  2  0  0  0  0
 53 64  1  0  0  0  0
 26 53  1  0  0  0  0
 19 54  1  0  0  0  0
 13 54  1  0  0  0  0
  9 54  1  0  0  0  0
 67 68  1  0  0  0  0
 67 69  2  0  0  0  0
 68 70  2  0  0  0  0
 69 71  1  0  0  0  0
 70 72  1  0  0  0  0
 71 72  2  0  0  0  0
 37 67  1  0  0  0  0
 73 74  3  0  0  0  0
 37 73  1  0  0  0  0
 74 75  1  0  0  0  0
 76 77  1  0  0  0  0
 76 78  2  0  0  0  0
 77 79  2  0  0  0  0
 78 80  1  0  0  0  0
 79 81  1  0  0  0  0
 80 81  2  0  0  0  0
 75 76  1  0  0  0  0
 82 83  1  0  0  0  0
 82 84  2  0  0  0  0
 83 85  2  0  0  0  0
 84 86  1  0  0  0  0
 85 87  1  0  0  0  0
 86 87  2  0  0  0  0
 75 82  1  0  0  0  0
  1 75  1  0  0  0  0
M  END
> <NMREDATA_VERSION>
1.1

> <NMREDATA_LEVEL>
0

> <NMREDATA_SOLVENT>
DCCl3

> <NMREDATA_TEMPERATURE>
300

> <NMREDATA_FORMULA>
C78H68BN2O2P3Rh

> <NMREDATA_SMILES>
O=[O][Rh](P(c1ccccc1)(c1ccccc1)c1ccccc1)(P(c1ccccc1)(c1ccccc1)c1ccccc1)(P(c1ccccc1)(c1ccccc1)c1ccccc1)(c1ccccn1)N#C[B](c1ccccc1)(c1ccccc1)c1ccccc1

> <NMREDATA_ASSIGNMENT>
Rh37, 3127.00, 37

> <NMREDATA_1D_103Rh>
3127.00, L=Rh37

$$$$

  ACD/LABS04012415132D

 37 39  0  0  0  0  0  0  0  0  1 V2000
   22.5049   -5.7744    0.0000 C    0  0  0  0  0  0  0  0  0  0  0  0
   22.2778   -7.0835    0.0000 C    0  0  0  0  0  0  0  0  0  0  0  0
   21.4803   -4.9222    0.0000 C    0  0  0  0  0  0  0  0  0  0  0  0
   21.0254   -7.5403    0.0000 C    0  0  0  0  0  0  0  0  0  0  0  0
   20.2283   -5.3787    0.0000 C    0  0  0  0  0  0  0  0  0  0  0  0
   20.0010   -6.6875    0.0000 C    0  0  0  0  0  0  0  0  0  0  0  0
   15.4779  -14.2144    0.0000 O    0  0  0  0  0  0  0  0  0  0  0  0
   15.4775  -12.8832    0.0000 N    0  0  0  0  0  0  0  0  0  0  0  0
   16.6294  -12.2181    0.0000 C    0  0  0  0  0  0  0  0  0  0  0  0
   17.7821  -12.8841    0.0000 C    0  0  0  0  0  0  0  0  0  0  0  0
   16.6290  -10.8870    0.0000 C    0  0  0  0  0  0  0  0  0  0  0  0
   15.4810  -10.2291    0.0000 C    0  0  0  0  0  0  0  0  0  0  0  0
   17.7813  -10.2217    0.0000 N    0  0  0  0  0  0  0  0  0  0  0  0
   17.7855   -8.8986    0.0000 O    0  0  0  0  0  0  0  0  0  0  0  0
   24.2296  -12.6640    0.0000 O    0  0  0  0  0  0  0  0  0  0  0  0
   22.9208  -12.4366    0.0000 N    0  0  0  0  0  0  0  0  0  0  0  0
   22.4642  -11.1846    0.0000 C    0  0  0  0  0  0  0  0  0  0  0  0
   23.3165  -10.1600    0.0000 C    0  0  0  0  0  0  0  0  0  0  0  0
   21.1549  -10.9571    0.0000 C    0  0  0  0  0  0  0  0  0  0  0  0
   20.2983  -11.9743    0.0000 C    0  0  0  0  0  0  0  0  0  0  0  0
   20.6983   -9.7051    0.0000 N    0  0  0  0  0  0  0  0  0  0  0  0
   19.3818   -9.4822    0.0000 O    0  0  0  0  0  0  0  0  0  0  0  0
   18.9297   -8.2380    0.0000 Rh   0  0  0  0  0  0  0  0  0  0  0  0
   20.1817   -7.7815    0.0000 Cl   0  0  0  0  0  0  0  0  0  0  0  0
   18.6961   -6.9290    0.0000 P    0  0  0  0  0  0  0  0  0  0  0  0
   18.4624   -5.6197    0.0000 C    0  0  0  0  0  0  0  0  0  0  0  0
   17.2075   -5.1667    0.0000 C    0  0  0  0  0  0  0  0  0  0  0  0
   19.4718   -4.7603    0.0000 C    0  0  0  0  0  0  0  0  0  0  0  0
   16.9741   -3.8572    0.0000 C    0  0  0  0  0  0  0  0  0  0  0  0
   19.2383   -3.4513    0.0000 C    0  0  0  0  0  0  0  0  0  0  0  0
   17.9834   -2.9983    0.0000 C    0  0  0  0  0  0  0  0  0  0  0  0
   17.3870   -7.1623    0.0000 C    0  0  0  0  0  0  0  0  0  0  0  0
   16.9417   -8.4127    0.0000 C    0  0  0  0  0  0  0  0  0  0  0  0
   16.5313   -6.1407    0.0000 C    0  0  0  0  0  0  0  0  0  0  0  0
   15.6324   -8.6464    0.0000 C    0  0  0  0  0  0  0  0  0  0  0  0
   15.2220   -6.3744    0.0000 C    0  0  0  0  0  0  0  0  0  0  0  0
   14.7765   -7.6250    0.0000 C    0  0  0  0  0  0  0  0  0  0  0  0
  1  2  1  0  0  0  0
  1  3  2  0  0  0  0
  2  4  2  0  0  0  0
  3  5  1  0  0  0  0
  4  6  1  0  0  0  0
  5  6  2  0  0  0  0
  7  8  1  0  0  0  0
  8  9  2  0  0  0  0
  9 10  1  0  0  0  0
  9 11  1  0  0  0  0
 11 12  1  0  0  0  0
 11 13  2  0  0  0  0
 13 14  1  0  0  0  0
 15 16  1  0  0  0  0
 16 17  2  0  0  0  0
 17 18  1  0  0  0  0
 17 19  1  0  0  0  0
 19 20  1  0  0  0  0
 19 21  2  0  0  0  0
 21 22  1  0  0  0  0
 22 23  1  0  0  0  0
 14 23  1  0  0  0  0
 23 24  1  0  0  0  0
 23 25  1  0  0  0  0
 26 27  1  0  0  0  0
 26 28  2  0  0  0  0
 27 29  2  0  0  0  0
 28 30  1  0  0  0  0
 29 31  1  0  0  0  0
 30 31  2  0  0  0  0
 25 26  1  0  0  0  0
 32 33  1  0  0  0  0
 32 34  2  0  0  0  0
 33 35  2  0  0  0  0
 34 36  1  0  0  0  0
 35 37  1  0  0  0  0
 36 37  2  0  0  0  0
 25 32  1  0  0  0  0
  6 25  1  0  0  0  0
M  END
> <NMREDATA_VERSION>
1.1

> <NMREDATA_LEVEL>
0

> <NMREDATA_SOLVENT>
DCCl3

> <NMREDATA_TEMPERATURE>
298

> <NMREDATA_FORMULA>
C26H30ClN4O4PRh

> <NMREDATA_SMILES>
O/N=C(/C(=N/O[Rh](P(c1ccccc1)(c1ccccc1)c1ccccc1)(O/N=C(/C(=N/O)/C)\C)Cl)/C)\C

> <NMREDATA_ASSIGNMENT>
Rh23, 2628.00, 23

> <NMREDATA_1D_103Rh>
2628.00, L=Rh23

$$$$

  ACD/LABS04012415142D

 37 39  0  0  0  0  0  0  0  0  1 V2000
   22.5049   -5.7744    0.0000 C    0  0  0  0  0  0  0  0  0  0  0  0
   22.2778   -7.0835    0.0000 C    0  0  0  0  0  0  0  0  0  0  0  0
   21.4803   -4.9222    0.0000 C    0  0  0  0  0  0  0  0  0  0  0  0
   21.0254   -7.5403    0.0000 C    0  0  0  0  0  0  0  0  0  0  0  0
   20.2283   -5.3787    0.0000 C    0  0  0  0  0  0  0  0  0  0  0  0
   20.0010   -6.6875    0.0000 C    0  0  0  0  0  0  0  0  0  0  0  0
   15.4779  -14.2144    0.0000 O    0  0  0  0  0  0  0  0  0  0  0  0
   15.4775  -12.8832    0.0000 N    0  0  0  0  0  0  0  0  0  0  0  0
   16.6294  -12.2181    0.0000 C    0  0  0  0  0  0  0  0  0  0  0  0
   17.7821  -12.8841    0.0000 C    0  0  0  0  0  0  0  0  0  0  0  0
   16.6290  -10.8870    0.0000 C    0  0  0  0  0  0  0  0  0  0  0  0
   15.4810  -10.2291    0.0000 C    0  0  0  0  0  0  0  0  0  0  0  0
   17.7813  -10.2217    0.0000 N    0  0  0  0  0  0  0  0  0  0  0  0
   17.7855   -8.8986    0.0000 O    0  0  0  0  0  0  0  0  0  0  0  0
   24.2296  -12.6640    0.0000 O    0  0  0  0  0  0  0  0  0  0  0  0
   22.9208  -12.4366    0.0000 N    0  0  0  0  0  0  0  0  0  0  0  0
   22.4642  -11.1846    0.0000 C    0  0  0  0  0  0  0  0  0  0  0  0
   23.3165  -10.1600    0.0000 C    0  0  0  0  0  0  0  0  0  0  0  0
   21.1549  -10.9571    0.0000 C    0  0  0  0  0  0  0  0  0  0  0  0
   20.2983  -11.9743    0.0000 C    0  0  0  0  0  0  0  0  0  0  0  0
   20.6983   -9.7051    0.0000 N    0  0  0  0  0  0  0  0  0  0  0  0
   19.3818   -9.4822    0.0000 O    0  0  0  0  0  0  0  0  0  0  0  0
   18.9297   -8.2380    0.0000 Rh   0  0  0  0  0  0  0  0  0  0  0  0
   20.1817   -7.7815    0.0000 Br   0  0  0  0  0  0  0  0  0  0  0  0
   18.6961   -6.9290    0.0000 P    0  0  0  0  0  0  0  0  0  0  0  0
   18.4624   -5.6197    0.0000 C    0  0  0  0  0  0  0  0  0  0  0  0
   17.2075   -5.1667    0.0000 C    0  0  0  0  0  0  0  0  0  0  0  0
   19.4718   -4.7603    0.0000 C    0  0  0  0  0  0  0  0  0  0  0  0
   16.9741   -3.8572    0.0000 C    0  0  0  0  0  0  0  0  0  0  0  0
   19.2383   -3.4513    0.0000 C    0  0  0  0  0  0  0  0  0  0  0  0
   17.9834   -2.9983    0.0000 C    0  0  0  0  0  0  0  0  0  0  0  0
   17.3870   -7.1623    0.0000 C    0  0  0  0  0  0  0  0  0  0  0  0
   16.9417   -8.4127    0.0000 C    0  0  0  0  0  0  0  0  0  0  0  0
   16.5313   -6.1407    0.0000 C    0  0  0  0  0  0  0  0  0  0  0  0
   15.6324   -8.6464    0.0000 C    0  0  0  0  0  0  0  0  0  0  0  0
   15.2220   -6.3744    0.0000 C    0  0  0  0  0  0  0  0  0  0  0  0
   14.7765   -7.6250    0.0000 C    0  0  0  0  0  0  0  0  0  0  0  0
  1  2  1  0  0  0  0
  1  3  2  0  0  0  0
  2  4  2  0  0  0  0
  3  5  1  0  0  0  0
  4  6  1  0  0  0  0
  5  6  2  0  0  0  0
  7  8  1  0  0  0  0
  8  9  2  0  0  0  0
  9 10  1  0  0  0  0
  9 11  1  0  0  0  0
 11 12  1  0  0  0  0
 11 13  2  0  0  0  0
 13 14  1  0  0  0  0
 15 16  1  0  0  0  0
 16 17  2  0  0  0  0
 17 18  1  0  0  0  0
 17 19  1  0  0  0  0
 19 20  1  0  0  0  0
 19 21  2  0  0  0  0
 21 22  1  0  0  0  0
 22 23  1  0  0  0  0
 14 23  1  0  0  0  0
 23 24  1  0  0  0  0
 23 25  1  0  0  0  0
 26 27  1  0  0  0  0
 26 28  2  0  0  0  0
 27 29  2  0  0  0  0
 28 30  1  0  0  0  0
 29 31  1  0  0  0  0
 30 31  2  0  0  0  0
 25 26  1  0  0  0  0
 32 33  1  0  0  0  0
 32 34  2  0  0  0  0
 33 35  2  0  0  0  0
 34 36  1  0  0  0  0
 35 37  1  0  0  0  0
 36 37  2  0  0  0  0
 25 32  1  0  0  0  0
  6 25  1  0  0  0  0
M  END
> <NMREDATA_VERSION>
1.1

> <NMREDATA_LEVEL>
0

> <NMREDATA_SOLVENT>
DCCl3

> <NMREDATA_TEMPERATURE>
298

> <NMREDATA_FORMULA>
C26H30BrN4O4PRh

> <NMREDATA_SMILES>
O/N=C(/C(=N/O[Rh](P(c1ccccc1)(c1ccccc1)c1ccccc1)(O/N=C(/C(=N/O)/C)\C)Br)/C)\C

> <NMREDATA_ASSIGNMENT>
Rh23, 2531.00, 23

> <NMREDATA_1D_103Rh>
2531.00, L=Rh23

$$$$

  ACD/LABS04012415142D

 37 39  0  0  0  0  0  0  0  0  1 V2000
   22.5049   -5.7744    0.0000 C    0  0  0  0  0  0  0  0  0  0  0  0
   22.2778   -7.0835    0.0000 C    0  0  0  0  0  0  0  0  0  0  0  0
   21.4803   -4.9222    0.0000 C    0  0  0  0  0  0  0  0  0  0  0  0
   21.0254   -7.5403    0.0000 C    0  0  0  0  0  0  0  0  0  0  0  0
   20.2283   -5.3787    0.0000 C    0  0  0  0  0  0  0  0  0  0  0  0
   20.0010   -6.6875    0.0000 C    0  0  0  0  0  0  0  0  0  0  0  0
   15.4779  -14.2144    0.0000 O    0  0  0  0  0  0  0  0  0  0  0  0
   15.4775  -12.8832    0.0000 N    0  0  0  0  0  0  0  0  0  0  0  0
   16.6294  -12.2181    0.0000 C    0  0  0  0  0  0  0  0  0  0  0  0
   17.7821  -12.8841    0.0000 C    0  0  0  0  0  0  0  0  0  0  0  0
   16.6290  -10.8870    0.0000 C    0  0  0  0  0  0  0  0  0  0  0  0
   15.4810  -10.2291    0.0000 C    0  0  0  0  0  0  0  0  0  0  0  0
   17.7813  -10.2217    0.0000 N    0  0  0  0  0  0  0  0  0  0  0  0
   17.7855   -8.8986    0.0000 O    0  0  0  0  0  0  0  0  0  0  0  0
   24.2296  -12.6640    0.0000 O    0  0  0  0  0  0  0  0  0  0  0  0
   22.9208  -12.4366    0.0000 N    0  0  0  0  0  0  0  0  0  0  0  0
   22.4642  -11.1846    0.0000 C    0  0  0  0  0  0  0  0  0  0  0  0
   23.3165  -10.1600    0.0000 C    0  0  0  0  0  0  0  0  0  0  0  0
   21.1549  -10.9571    0.0000 C    0  0  0  0  0  0  0  0  0  0  0  0
   20.2983  -11.9743    0.0000 C    0  0  0  0  0  0  0  0  0  0  0  0
   20.6983   -9.7051    0.0000 N    0  0  0  0  0  0  0  0  0  0  0  0
   19.3818   -9.4822    0.0000 O    0  0  0  0  0  0  0  0  0  0  0  0
   18.9297   -8.2380    0.0000 Rh   0  0  0  0  0  0  0  0  0  0  0  0
   20.1817   -7.7815    0.0000 I    0  0  0  0  0  0  0  0  0  0  0  0
   18.6961   -6.9290    0.0000 P    0  0  0  0  0  0  0  0  0  0  0  0
   18.4624   -5.6197    0.0000 C    0  0  0  0  0  0  0  0  0  0  0  0
   17.2075   -5.1667    0.0000 C    0  0  0  0  0  0  0  0  0  0  0  0
   19.4718   -4.7603    0.0000 C    0  0  0  0  0  0  0  0  0  0  0  0
   16.9741   -3.8572    0.0000 C    0  0  0  0  0  0  0  0  0  0  0  0
   19.2383   -3.4513    0.0000 C    0  0  0  0  0  0  0  0  0  0  0  0
   17.9834   -2.9983    0.0000 C    0  0  0  0  0  0  0  0  0  0  0  0
   17.3870   -7.1623    0.0000 C    0  0  0  0  0  0  0  0  0  0  0  0
   16.9417   -8.4127    0.0000 C    0  0  0  0  0  0  0  0  0  0  0  0
   16.5313   -6.1407    0.0000 C    0  0  0  0  0  0  0  0  0  0  0  0
   15.6324   -8.6464    0.0000 C    0  0  0  0  0  0  0  0  0  0  0  0
   15.2220   -6.3744    0.0000 C    0  0  0  0  0  0  0  0  0  0  0  0
   14.7765   -7.6250    0.0000 C    0  0  0  0  0  0  0  0  0  0  0  0
  1  2  1  0  0  0  0
  1  3  2  0  0  0  0
  2  4  2  0  0  0  0
  3  5  1  0  0  0  0
  4  6  1  0  0  0  0
  5  6  2  0  0  0  0
  7  8  1  0  0  0  0
  8  9  2  0  0  0  0
  9 10  1  0  0  0  0
  9 11  1  0  0  0  0
 11 12  1  0  0  0  0
 11 13  2  0  0  0  0
 13 14  1  0  0  0  0
 15 16  1  0  0  0  0
 16 17  2  0  0  0  0
 17 18  1  0  0  0  0
 17 19  1  0  0  0  0
 19 20  1  0  0  0  0
 19 21  2  0  0  0  0
 21 22  1  0  0  0  0
 22 23  1  0  0  0  0
 14 23  1  0  0  0  0
 23 24  1  0  0  0  0
 23 25  1  0  0  0  0
 26 27  1  0  0  0  0
 26 28  2  0  0  0  0
 27 29  2  0  0  0  0
 28 30  1  0  0  0  0
 29 31  1  0  0  0  0
 30 31  2  0  0  0  0
 25 26  1  0  0  0  0
 32 33  1  0  0  0  0
 32 34  2  0  0  0  0
 33 35  2  0  0  0  0
 34 36  1  0  0  0  0
 35 37  1  0  0  0  0
 36 37  2  0  0  0  0
 25 32  1  0  0  0  0
  6 25  1  0  0  0  0
M  END
> <NMREDATA_VERSION>
1.1

> <NMREDATA_LEVEL>
0

> <NMREDATA_SOLVENT>
DCCl3

> <NMREDATA_TEMPERATURE>
298

> <NMREDATA_FORMULA>
C26H30IN4O4PRh

> <NMREDATA_SMILES>
O/N=C(/C(=N/O[Rh](P(c1ccccc1)(c1ccccc1)c1ccccc1)(O/N=C(/C(=N/O)/C)\C)I)/C)\C

> <NMREDATA_ASSIGNMENT>
Rh23, 2363.00, 23

> <NMREDATA_1D_103Rh>
2363.00, L=Rh23

$$$$

  ACD/LABS04012415162D

 48 54  0  0  0  0  0  0  0  0  1 V2000
    9.2046  -13.3819    0.0000 C    0  0  0  0  0  0  0  0  0  0  0  0
    8.1269  -12.6061    0.0000 C    0  0  0  0  0  0  0  0  0  0  0  0
   10.4246  -12.8472    0.0000 C    0  0  0  0  0  0  0  0  0  0  0  0
    8.2661  -11.2836    0.0000 C    0  0  0  0  0  0  0  0  0  0  0  0
   10.5558  -11.5202    0.0000 C    0  0  0  0  0  0  0  0  0  0  0  0
    9.4828  -10.7368    0.0000 C    0  0  0  0  0  0  0  0  0  0  0  0
   14.7070   -9.1357    0.0000 C    0  0  0  0  0  0  0  0  0  0  0  0
   14.3873   -7.8452    0.0000 C    0  0  0  0  0  0  0  0  0  0  0  0
   13.7508  -10.0473    0.0000 C    0  0  0  0  0  0  0  0  0  0  0  0
   13.1144   -7.4791    0.0000 C    0  0  0  0  0  0  0  0  0  0  0  0
   12.4779   -9.6812    0.0000 C    0  0  0  0  0  0  0  0  0  0  0  0
   12.1535   -8.3986    0.0000 C    0  0  0  0  0  0  0  0  0  0  0  0
   17.3068  -11.4252    0.0000 C    0  0  0  0  0  0  0  0  0  0  0  0
   15.9816  -11.4684    0.0000 C    0  0  0  0  0  0  0  0  0  0  0  0
   17.9256  -10.2466    0.0000 C    0  0  0  0  0  0  0  0  0  0  0  0
   15.2660  -10.3492    0.0000 C    0  0  0  0  0  0  0  0  0  0  0  0
   17.2223   -9.1239    0.0000 C    0  0  0  0  0  0  0  0  0  0  0  0
   15.8926   -9.1750    0.0000 C    0  0  0  0  0  0  0  0  0  0  0  0
   12.4286  -11.5570    0.0000 Rh   0  0  0  0  0  0  0  0  0  0  0  0
   13.6804  -12.0136    0.0000 Cl   0  0  0  0  0  0  0  0  0  0  0  0
   11.2418  -12.1416    0.0000 O    0  0  0  0  0  0  0  0  0  0  0  0
   11.1344  -13.4616    0.0000 O    0  0  0  0  0  0  0  0  0  0  0  0
   15.1815   -8.0479    0.0000 P    0  0  0  0  0  0  0  0  0  0  0  0
   11.5170  -10.6008    0.0000 P    0  0  0  0  0  0  0  0  0  0  0  0
   12.8331  -12.8247    0.0000 C    0  0  0  0  0  0  0  0  0  0  0  0
   11.9403  -13.8041    0.0000 N    0  0  0  0  0  0  0  0  0  0  0  0
   14.1354  -13.1055    0.0000 C    0  0  0  0  0  0  0  0  0  0  0  0
   12.3448  -15.0717    0.0000 C    0  0  0  0  0  0  0  0  0  0  0  0
   14.5399  -14.3731    0.0000 C    0  0  0  0  0  0  0  0  0  0  0  0
   13.6468  -15.3524    0.0000 C    0  0  0  0  0  0  0  0  0  0  0  0
   10.5972   -9.6397    0.0000 C    0  0  0  0  0  0  0  0  0  0  0  0
   10.9682   -8.3591    0.0000 C    0  0  0  0  0  0  0  0  0  0  0  0
    9.3069   -9.9597    0.0000 C    0  0  0  0  0  0  0  0  0  0  0  0
   10.0397   -7.4136    0.0000 C    0  0  0  0  0  0  0  0  0  0  0  0
    8.3873   -8.9988    0.0000 C    0  0  0  0  0  0  0  0  0  0  0  0
    8.7582   -7.7176    0.0000 C    0  0  0  0  0  0  0  0  0  0  0  0
   17.8238   -5.7233    0.0000 C    0  0  0  0  0  0  0  0  0  0  0  0
   18.8793   -6.5376    0.0000 C    0  0  0  0  0  0  0  0  0  0  0  0
   16.5944   -6.2217    0.0000 C    0  0  0  0  0  0  0  0  0  0  0  0
   18.7006   -7.8579    0.0000 C    0  0  0  0  0  0  0  0  0  0  0  0
   16.4157   -7.5420    0.0000 C    0  0  0  0  0  0  0  0  0  0  0  0
   17.4712   -8.3563    0.0000 C    0  0  0  0  0  0  0  0  0  0  0  0
   15.3875   -4.6239    0.0000 C    0  0  0  0  0  0  0  0  0  0  0  0
   14.1244   -4.2224    0.0000 C    0  0  0  0  0  0  0  0  0  0  0  0
   15.6628   -5.9196    0.0000 C    0  0  0  0  0  0  0  0  0  0  0  0
   13.1370   -5.1168    0.0000 C    0  0  0  0  0  0  0  0  0  0  0  0
   14.6833   -6.8181    0.0000 C    0  0  0  0  0  0  0  0  0  0  0  0
   13.4205   -6.4168    0.0000 C    0  0  0  0  0  0  0  0  0  0  0  0
  1  2  1  0  0  0  0
  1  3  2  0  0  0  0
  2  4  2  0  0  0  0
  3  5  1  0  0  0  0
  4  6  1  0  0  0  0
  5  6  2  0  0  0  0
  7  8  1  0  0  0  0
  7  9  2  0  0  0  0
  8 10  2  0  0  0  0
  9 11  1  0  0  0  0
 10 12  1  0  0  0  0
 11 12  2  0  0  0  0
 13 14  1  0  0  0  0
 13 15  2  0  0  0  0
 14 16  2  0  0  0  0
 15 17  1  0  0  0  0
 16 18  1  0  0  0  0
 17 18  2  0  0  0  0
 19 20  1  0  0  0  0
 19 21  1  0  0  0  0
 21 22  2  0  0  0  0
 19 23  1  0  0  0  0
 19 24  1  0  0  0  0
 25 26  1  0  0  0  0
 25 27  2  0  0  0  0
 26 28  2  0  0  0  0
 27 29  1  0  0  0  0
 28 30  1  0  0  0  0
 29 30  2  0  0  0  0
 19 25  1  0  0  0  0
 31 32  1  0  0  0  0
 31 33  2  0  0  0  0
 32 34  2  0  0  0  0
 33 35  1  0  0  0  0
 34 36  1  0  0  0  0
 35 36  2  0  0  0  0
 24 31  1  0  0  0  0
 18 23  1  0  0  0  0
 37 38  1  0  0  0  0
 37 39  2  0  0  0  0
 38 40  2  0  0  0  0
 39 41  1  0  0  0  0
 40 42  1  0  0  0  0
 41 42  2  0  0  0  0
 23 41  1  0  0  0  0
 43 44  1  0  0  0  0
 43 45  2  0  0  0  0
 44 46  2  0  0  0  0
 45 47  1  0  0  0  0
 46 48  1  0  0  0  0
 47 48  2  0  0  0  0
 23 47  1  0  0  0  0
 11 24  1  0  0  0  0
  5 24  1  0  0  0  0
M  END
> <NMREDATA_VERSION>
1.1

> <NMREDATA_LEVEL>
0

> <NMREDATA_SOLVENT>
DCCl3

> <NMREDATA_TEMPERATURE>
300

> <NMREDATA_FORMULA>
C41H36ClNO2P2Rh

> <NMREDATA_SMILES>
O=[O][Rh](P(c1ccccc1)(c1ccccc1)c1ccccc1)(P(c1ccccc1)(c1ccccc1)c1ccccc1)(c1ccccn1)Cl

> <NMREDATA_ASSIGNMENT>
Rh19, 3374.00, 19

> <NMREDATA_1D_103Rh>
3374.00, L=Rh19

$$$$

  ACD/LABS04022409512D

 62 68  0  0  0  0  0  0  0  0  2 V2000
   16.4530   -9.9680    0.0000 C    0  0  0  0  0  0  0  0  0  0  0  0
   16.2191  -11.2775    0.0000 C    0  0  0  0  0  0  0  0  0  0  0  0
   15.4313   -9.1118    0.0000 C    0  0  0  0  0  0  0  0  0  0  0  0
   14.9641  -11.7308    0.0000 C    0  0  0  0  0  0  0  0  0  0  0  0
   14.1880   -9.5618    0.0000 C    0  0  0  0  0  0  0  0  0  0  0  0
   13.9469  -10.8668    0.0000 C    0  0  0  0  0  0  0  0  0  0  0  0
   16.3733   -3.8787    0.0000 C    0  0  0  0  0  0  0  0  0  0  0  0
   17.3902   -4.7426    0.0000 C    0  0  0  0  0  0  0  0  0  0  0  0
   15.1179   -4.3322    0.0000 C    0  0  0  0  0  0  0  0  0  0  0  0
   17.1567   -6.0520    0.0000 C    0  0  0  0  0  0  0  0  0  0  0  0
   14.8844   -5.6415    0.0000 C    0  0  0  0  0  0  0  0  0  0  0  0
   15.9058   -6.4975    0.0000 C    0  0  0  0  0  0  0  0  0  0  0  0
   18.5646   -7.8176    0.0000 Rh   0  3  0  0  0  0  0  0  0  0  0  0
   19.2300   -6.6651    0.0000 O    0  0  0  0  0  0  0  0  0  0  0  0
   18.5797   -5.5215    0.0000 O    0  0  0  0  0  0  0  0  0  0  0  0
   15.6769   -7.7990    0.0000 P    0  0  0  0  0  0  0  0  0  0  0  0
   14.3597   -7.5610    0.0000 C    0  0  0  0  0  0  0  0  0  0  0  0
   13.5035   -8.5827    0.0000 C    0  0  0  0  0  0  0  0  0  0  0  0
   12.1941   -8.3492    0.0000 O    0  0  0  0  0  0  0  0  0  0  0  0
   11.3349   -9.3587    0.0000 C    0  0  0  0  0  0  0  0  0  0  0  0
   19.2187   -8.9739    0.0000 P    0  0  0  0  0  0  0  0  0  0  0  0
   20.0712   -9.9986    0.0000 C    0  0  0  0  0  0  0  0  0  0  0  0
   19.6115  -11.2384    0.0000 C    0  0  0  0  0  0  0  0  0  0  0  0
   21.3759   -9.7789    0.0000 C    0  0  0  0  0  0  0  0  0  0  0  0
   20.4563  -12.2591    0.0000 C    0  0  0  0  0  0  0  0  0  0  0  0
   22.2287  -10.8038    0.0000 C    0  0  0  0  0  0  0  0  0  0  0  0
   21.7688  -12.0435    0.0000 C    0  0  0  0  0  0  0  0  0  0  0  0
   20.2436   -8.1211    0.0000 C    0  0  0  0  0  0  0  0  0  0  0  0
   21.4916   -8.5854    0.0000 C    0  0  0  0  0  0  0  0  0  0  0  0
   20.0239   -6.8164    0.0000 C    0  0  0  0  0  0  0  0  0  0  0  0
   22.5120   -7.7405    0.0000 C    0  0  0  0  0  0  0  0  0  0  0  0
   21.0488   -5.9636    0.0000 C    0  0  0  0  0  0  0  0  0  0  0  0
   22.2966   -6.4282    0.0000 C    0  0  0  0  0  0  0  0  0  0  0  0
   18.1982   -9.8183    0.0000 C    0  0  0  0  0  0  0  0  0  0  0  0
   18.1902  -11.1451    0.0000 C    0  0  0  0  0  0  0  0  0  0  0  0
   17.0343  -11.7991    0.0000 O    0  0  0  0  0  0  0  0  0  0  0  0
   17.0294  -13.1382    0.0000 C    0  0  0  0  0  0  0  0  0  0  0  0
   31.1508  -10.8623    0.0000 C    0  0  0  0  0  0  0  0  0  0  0  0
   30.4858  -12.0142    0.0000 C    0  0  0  0  0  0  0  0  0  0  0  0
   30.4858   -9.7105    0.0000 C    0  0  0  0  0  0  0  0  0  0  0  0
   29.1558  -12.0142    0.0000 C    0  0  0  0  0  0  0  0  0  0  0  0
   29.1558   -9.7105    0.0000 C    0  0  0  0  0  0  0  0  0  0  0  0
   28.4908  -10.8623    0.0000 C    0  0  0  0  0  0  0  0  0  0  0  0
   28.4908   -8.5587    0.0000 B    0  5  0  0  0  0  0  0  0  0  0  0
   29.6427   -7.8937    0.0000 C    0  0  0  0  0  0  0  0  0  0  0  0
   29.6427   -6.5637    0.0000 C    0  0  0  0  0  0  0  0  0  0  0  0
   30.7945   -8.5587    0.0000 C    0  0  0  0  0  0  0  0  0  0  0  0
   30.7945   -5.8987    0.0000 C    0  0  0  0  0  0  0  0  0  0  0  0
   31.9463   -7.8937    0.0000 C    0  0  0  0  0  0  0  0  0  0  0  0
   31.9463   -6.5637    0.0000 C    0  0  0  0  0  0  0  0  0  0  0  0
   27.3390   -9.2237    0.0000 C    0  0  0  0  0  0  0  0  0  0  0  0
   27.3390  -10.5537    0.0000 C    0  0  0  0  0  0  0  0  0  0  0  0
   26.1872   -8.5587    0.0000 C    0  0  0  0  0  0  0  0  0  0  0  0
   26.1872  -11.2187    0.0000 C    0  0  0  0  0  0  0  0  0  0  0  0
   25.0354   -9.2237    0.0000 C    0  0  0  0  0  0  0  0  0  0  0  0
   25.0354  -10.5537    0.0000 C    0  0  0  0  0  0  0  0  0  0  0  0
   27.8258   -7.4069    0.0000 C    0  0  0  0  0  0  0  0  0  0  0  0
   26.4958   -7.4069    0.0000 C    0  0  0  0  0  0  0  0  0  0  0  0
   28.4908   -6.2551    0.0000 C    0  0  0  0  0  0  0  0  0  0  0  0
   25.8308   -6.2551    0.0000 C    0  0  0  0  0  0  0  0  0  0  0  0
   27.8258   -5.1033    0.0000 C    0  0  0  0  0  0  0  0  0  0  0  0
   26.4958   -5.1033    0.0000 C    0  0  0  0  0  0  0  0  0  0  0  0
  1  2  1  0  0  0  0
  1  3  1  0  0  0  0
  2  4  1  0  0  0  0
  3  5  1  0  0  0  0
  4  6  1  0  0  0  0
  5  6  1  0  0  0  0
  7  8  1  0  0  0  0
  7  9  1  0  0  0  0
  8 10  1  0  0  0  0
  9 11  1  0  0  0  0
 10 12  1  0  0  0  0
 11 12  1  0  0  0  0
 13 14  1  0  0  0  0
 14 15  2  0  0  0  0
 13 16  1  0  0  0  0
 12 16  1  0  0  0  0
  3 16  1  0  0  0  0
 16 17  1  0  0  0  0
 17 18  1  0  0  0  0
 18 19  1  0  0  0  0
 19 20  1  0  0  0  0
 13 21  1  0  0  0  0
 22 23  1  0  0  0  0
 22 24  1  0  0  0  0
 23 25  1  0  0  0  0
 24 26  1  0  0  0  0
 25 27  1  0  0  0  0
 26 27  1  0  0  0  0
 21 22  1  0  0  0  0
 28 29  1  0  0  0  0
 28 30  1  0  0  0  0
 29 31  1  0  0  0  0
 30 32  1  0  0  0  0
 31 33  1  0  0  0  0
 32 33  1  0  0  0  0
 21 28  1  0  0  0  0
 21 34  1  0  0  0  0
 34 35  1  0  0  0  0
 35 36  1  0  0  0  0
 36 37  1  0  0  0  0
 38 39  1  0  0  0  0
 38 40  2  0  0  0  0
 39 41  2  0  0  0  0
 40 42  1  0  0  0  0
 41 43  1  0  0  0  0
 42 43  2  0  0  0  0
 45 46  1  0  0  0  0
 45 47  2  0  0  0  0
 46 48  2  0  0  0  0
 47 49  1  0  0  0  0
 48 50  1  0  0  0  0
 49 50  2  0  0  0  0
 44 45  1  0  0  0  0
 51 52  1  0  0  0  0
 51 53  2  0  0  0  0
 52 54  2  0  0  0  0
 53 55  1  0  0  0  0
 54 56  1  0  0  0  0
 55 56  2  0  0  0  0
 44 51  1  0  0  0  0
 57 58  1  0  0  0  0
 57 59  2  0  0  0  0
 58 60  2  0  0  0  0
 59 61  1  0  0  0  0
 60 62  1  0  0  0  0
 61 62  2  0  0  0  0
 44 57  1  0  0  0  0
 42 44  1  0  0  0  0
M  END
> <NMREDATA_VERSION>
1.1

> <NMREDATA_LEVEL>
0

> <NMREDATA_SOLVENT>
CD2Cl2

> <NMREDATA_TEMPERATURE>
243

> <NMREDATA_FORMULA>
C54H80BO4P2Rh

> <NMREDATA_SMILES>
c1ccc(cc1)[B](c1ccccc1)(c1ccccc1)c1ccccc1.COCCP([Rh](P(C1CCCCC1)(C1CCCCC1)CCOC)[O]=O)(C1CCCCC1)C1CCCCC1

> <NMREDATA_ASSIGNMENT>
Rh13, 3770.00, 13

> <NMREDATA_1D_103Rh>
3770.00, L=Rh13

$$$$

  ACD/LABS04022409532D

 65 71  0  0  0  0  0  0  0  0  2 V2000
   14.4863   -4.7185    0.0000 C    0  0  0  0  0  0  0  0  0  0  0  0
   13.6307   -3.6977    0.0000 C    0  0  0  0  0  0  0  0  0  0  0  0
   14.0289   -5.9650    0.0000 C    0  0  0  0  0  0  0  0  0  0  0  0
   12.3259   -3.9189    0.0000 C    0  0  0  0  0  0  0  0  0  0  0  0
   12.7165   -6.1905    0.0000 C    0  0  0  0  0  0  0  0  0  0  0  0
   11.8610   -5.1700    0.0000 C    0  0  0  0  0  0  0  0  0  0  0  0
   16.2518  -10.7187    0.0000 C    0  0  0  0  0  0  0  0  0  0  0  0
   14.9360  -10.4961    0.0000 C    0  0  0  0  0  0  0  0  0  0  0  0
   17.0957   -9.6993    0.0000 C    0  0  0  0  0  0  0  0  0  0  0  0
   14.4799   -9.2449    0.0000 C    0  0  0  0  0  0  0  0  0  0  0  0
   16.6440   -8.4558    0.0000 C    0  0  0  0  0  0  0  0  0  0  0  0
   15.3315   -8.2211    0.0000 C    0  0  0  0  0  0  0  0  0  0  0  0
   16.0275   -6.3255    0.0000 Rh   0  1  0  0  0  0  0  0  0  0  0  0
   14.8843   -6.9855    0.0000 P    0  0  0  0  0  0  0  0  0  0  0  0
   13.7330   -7.6503    0.0000 C    0  0  0  0  0  0  0  0  0  0  0  0
   12.5813   -6.9850    0.0000 C    0  0  0  0  0  0  0  0  0  0  0  0
   11.4302   -7.6496    0.0000 O    0  0  0  0  0  0  0  0  0  0  0  0
   10.2784   -6.9840    0.0000 C    0  0  0  0  0  0  0  0  0  0  0  0
   18.5282   -7.7674    0.0000 P    0  0  0  0  0  0  0  0  0  0  0  0
   19.6799   -8.4326    0.0000 C    0  0  0  0  0  0  0  0  0  0  0  0
   19.6802   -9.7626    0.0000 C    0  0  0  0  0  0  0  0  0  0  0  0
   20.8309   -7.7680    0.0000 C    0  0  0  0  0  0  0  0  0  0  0  0
   20.8276  -10.4205    0.0000 C    0  0  0  0  0  0  0  0  0  0  0  0
   21.9826   -8.4333    0.0000 C    0  0  0  0  0  0  0  0  0  0  0  0
   21.9787   -9.7560    0.0000 C    0  0  0  0  0  0  0  0  0  0  0  0
   19.1935   -6.6157    0.0000 C    0  0  0  0  0  0  0  0  0  0  0  0
   20.5238   -6.6152    0.0000 C    0  0  0  0  0  0  0  0  0  0  0  0
   18.5333   -5.4722    0.0000 C    0  0  0  0  0  0  0  0  0  0  0  0
   21.1890   -5.4636    0.0000 C    0  0  0  0  0  0  0  0  0  0  0  0
   19.1990   -4.3207    0.0000 C    0  0  0  0  0  0  0  0  0  0  0  0
   20.5289   -4.3201    0.0000 C    0  0  0  0  0  0  0  0  0  0  0  0
   17.8625   -8.9189    0.0000 C    0  0  0  0  0  0  0  0  0  0  0  0
   18.5272  -10.0702    0.0000 C    0  0  0  0  0  0  0  0  0  0  0  0
   17.8775  -11.2130    0.0000 O    0  0  0  0  0  0  0  0  0  0  0  0
   18.5422  -12.3643    0.0000 C    0  0  0  0  0  0  0  0  0  0  0  0
   16.0272   -4.9955    0.0000 S    0  0  0  0  0  0  0  0  0  0  0  0
   17.2865   -5.4042    0.0000 O    0  0  0  0  0  0  0  0  0  0  0  0
   14.8573   -5.6093    0.0000 O    0  5  0  0  0  0  0  0  0  0  0  0
   16.8084   -3.9202    0.0000 O    0  5  0  0  0  0  0  0  0  0  0  0
   15.2398   -3.9150    0.0000 O    0  0  0  0  0  0  0  0  0  0  0  0
   31.1508  -10.8623    0.0000 C    0  0  0  0  0  0  0  0  0  0  0  0
   30.4858  -12.0142    0.0000 C    0  0  0  0  0  0  0  0  0  0  0  0
   30.4858   -9.7105    0.0000 C    0  0  0  0  0  0  0  0  0  0  0  0
   29.1558  -12.0142    0.0000 C    0  0  0  0  0  0  0  0  0  0  0  0
   29.1558   -9.7105    0.0000 C    0  0  0  0  0  0  0  0  0  0  0  0
   28.4908  -10.8623    0.0000 C    0  0  0  0  0  0  0  0  0  0  0  0
   28.4908   -8.5587    0.0000 B    0  5  0  0  0  0  0  0  0  0  0  0
   29.6427   -7.8937    0.0000 C    0  0  0  0  0  0  0  0  0  0  0  0
   29.6427   -6.5637    0.0000 C    0  0  0  0  0  0  0  0  0  0  0  0
   30.7945   -8.5587    0.0000 C    0  0  0  0  0  0  0  0  0  0  0  0
   30.7945   -5.8987    0.0000 C    0  0  0  0  0  0  0  0  0  0  0  0
   31.9463   -7.8937    0.0000 C    0  0  0  0  0  0  0  0  0  0  0  0
   31.9463   -6.5637    0.0000 C    0  0  0  0  0  0  0  0  0  0  0  0
   27.3390   -9.2237    0.0000 C    0  0  0  0  0  0  0  0  0  0  0  0
   27.3390  -10.5537    0.0000 C    0  0  0  0  0  0  0  0  0  0  0  0
   26.1872   -8.5587    0.0000 C    0  0  0  0  0  0  0  0  0  0  0  0
   26.1872  -11.2187    0.0000 C    0  0  0  0  0  0  0  0  0  0  0  0
   25.0354   -9.2237    0.0000 C    0  0  0  0  0  0  0  0  0  0  0  0
   25.0354  -10.5537    0.0000 C    0  0  0  0  0  0  0  0  0  0  0  0
   27.8258   -7.4069    0.0000 C    0  0  0  0  0  0  0  0  0  0  0  0
   26.4958   -7.4069    0.0000 C    0  0  0  0  0  0  0  0  0  0  0  0
   28.4908   -6.2551    0.0000 C    0  0  0  0  0  0  0  0  0  0  0  0
   25.8308   -6.2551    0.0000 C    0  0  0  0  0  0  0  0  0  0  0  0
   27.8258   -5.1033    0.0000 C    0  0  0  0  0  0  0  0  0  0  0  0
   26.4958   -5.1033    0.0000 C    0  0  0  0  0  0  0  0  0  0  0  0
  1  2  1  0  0  0  0
  1  3  1  0  0  0  0
  2  4  1  0  0  0  0
  3  5  1  0  0  0  0
  4  6  1  0  0  0  0
  5  6  1  0  0  0  0
  7  8  1  0  0  0  0
  7  9  1  0  0  0  0
  8 10  1  0  0  0  0
  9 11  1  0  0  0  0
 10 12  1  0  0  0  0
 11 12  1  0  0  0  0
 13 14  1  0  0  0  0
 12 14  1  0  0  0  0
  3 14  1  0  0  0  0
 14 15  1  0  0  0  0
 15 16  1  0  0  0  0
 16 17  1  0  0  0  0
 17 18  1  0  0  0  0
 13 19  1  0  0  0  0
 20 21  1  0  0  0  0
 20 22  1  0  0  0  0
 21 23  1  0  0  0  0
 22 24  1  0  0  0  0
 23 25  1  0  0  0  0
 24 25  1  0  0  0  0
 19 20  1  0  0  0  0
 26 27  1  0  0  0  0
 26 28  1  0  0  0  0
 27 29  1  0  0  0  0
 28 30  1  0  0  0  0
 29 31  1  0  0  0  0
 30 31  1  0  0  0  0
 19 26  1  0  0  0  0
 19 32  1  0  0  0  0
 32 33  1  0  0  0  0
 33 34  1  0  0  0  0
 34 35  1  0  0  0  0
 13 36  1  0  0  0  0
 36 37  2  0  0  0  0
 36 38  1  0  0  0  0
 36 39  1  0  0  0  0
 36 40  2  0  0  0  0
 41 42  1  0  0  0  0
 41 43  2  0  0  0  0
 42 44  2  0  0  0  0
 43 45  1  0  0  0  0
 44 46  1  0  0  0  0
 45 46  2  0  0  0  0
 48 49  1  0  0  0  0
 48 50  2  0  0  0  0
 49 51  2  0  0  0  0
 50 52  1  0  0  0  0
 51 53  1  0  0  0  0
 52 53  2  0  0  0  0
 47 48  1  0  0  0  0
 54 55  1  0  0  0  0
 54 56  2  0  0  0  0
 55 57  2  0  0  0  0
 56 58  1  0  0  0  0
 57 59  1  0  0  0  0
 58 59  2  0  0  0  0
 47 54  1  0  0  0  0
 60 61  1  0  0  0  0
 60 62  2  0  0  0  0
 61 63  2  0  0  0  0
 62 64  1  0  0  0  0
 63 65  1  0  0  0  0
 64 65  2  0  0  0  0
 47 60  1  0  0  0  0
 45 47  1  0  0  0  0
M  END
> <NMREDATA_VERSION>
1.1

> <NMREDATA_LEVEL>
0

> <NMREDATA_SOLVENT>
CD2Cl2

> <NMREDATA_TEMPERATURE>
243

> <NMREDATA_FORMULA>
C54H82BO6P2RhS

> <NMREDATA_SMILES>
c1ccc(cc1)[B](c1ccccc1)(c1ccccc1)c1ccccc1.COCCP([Rh]([S](=O)(=O)(O)O)P(C1CCCCC1)(C1CCCCC1)CCOC)(C1CCCCC1)C1CCCCC1

> <NMREDATA_ASSIGNMENT>
Rh13, 4063.00, 13

> <NMREDATA_1D_103Rh>
4063.00, L=Rh13

$$$$

  ACD/LABS04022410012D

 61 69  0  0  0  0  0  0  0  0  1 V2000
   11.6571   -6.7142    0.0000 C    0  0  0  0  0  0  0  0  0  0  0  0
   12.1181   -5.4633    0.0000 C    0  0  0  0  0  0  0  0  0  0  0  0
   12.5085   -7.7342    0.0000 C    0  0  0  0  0  0  0  0  0  0  0  0
   13.4222   -5.2328    0.0000 C    0  0  0  0  0  0  0  0  0  0  0  0
   13.8213   -7.5037    0.0000 C    0  0  0  0  0  0  0  0  0  0  0  0
   14.2828   -6.2527    0.0000 C    0  0  0  0  0  0  0  0  0  0  0  0
   18.6551   -4.3190    0.0000 C    0  0  0  0  0  0  0  0  0  0  0  0
   17.3607   -4.5496    0.0000 C    0  0  0  0  0  0  0  0  0  0  0  0
   19.5157   -5.3390    0.0000 C    0  0  0  0  0  0  0  0  0  0  0  0
   16.8993   -5.8005    0.0000 C    0  0  0  0  0  0  0  0  0  0  0  0
   19.0542   -6.5899    0.0000 C    0  0  0  0  0  0  0  0  0  0  0  0
   17.7511   -6.8205    0.0000 C    0  0  0  0  0  0  0  0  0  0  0  0
   14.9036   -2.0925    0.0000 C    0  0  0  0  0  0  0  0  0  0  0  0
   13.8837   -2.9443    0.0000 C    0  0  0  0  0  0  0  0  0  0  0  0
   16.1541   -2.5539    0.0000 C    0  0  0  0  0  0  0  0  0  0  0  0
   14.1142   -4.2571    0.0000 C    0  0  0  0  0  0  0  0  0  0  0  0
   16.3851   -3.8668    0.0000 C    0  0  0  0  0  0  0  0  0  0  0  0
   15.3647   -4.7182    0.0000 C    0  0  0  0  0  0  0  0  0  0  0  0
   22.4874  -16.0894    0.0000 C    0  0  0  0  0  0  0  0  0  0  0  0
   23.7647  -15.7258    0.0000 C    0  0  0  0  0  0  0  0  0  0  0  0
   21.5293  -15.1669    0.0000 C    0  0  0  0  0  0  0  0  0  0  0  0
   24.0927  -14.4398    0.0000 C    0  0  0  0  0  0  0  0  0  0  0  0
   21.8573  -13.8720    0.0000 C    0  0  0  0  0  0  0  0  0  0  0  0
   23.1346  -13.5085    0.0000 C    0  0  0  0  0  0  0  0  0  0  0  0
   22.3895   -9.7561    0.0000 C    0  0  0  0  0  0  0  0  0  0  0  0
   23.6760  -10.0846    0.0000 C    0  0  0  0  0  0  0  0  0  0  0  0
   21.4670  -10.7142    0.0000 C    0  0  0  0  0  0  0  0  0  0  0  0
   24.0395  -11.3618    0.0000 C    0  0  0  0  0  0  0  0  0  0  0  0
   21.8310  -11.9915    0.0000 C    0  0  0  0  0  0  0  0  0  0  0  0
   23.1170  -12.3195    0.0000 C    0  0  0  0  0  0  0  0  0  0  0  0
   18.6819  -13.5792    0.0000 C    0  0  0  0  0  0  0  0  0  0  0  0
   17.7686  -14.5372    0.0000 C    0  0  0  0  0  0  0  0  0  0  0  0
   19.9767  -13.9076    0.0000 C    0  0  0  0  0  0  0  0  0  0  0  0
   18.1230  -15.8145    0.0000 C    0  0  0  0  0  0  0  0  0  0  0  0
   20.3407  -15.1849    0.0000 C    0  0  0  0  0  0  0  0  0  0  0  0
   19.4182  -16.1430    0.0000 C    0  0  0  0  0  0  0  0  0  0  0  0
   17.1302  -12.1333    0.0000 C    0  0  0  0  0  0  0  0  0  0  0  0
   16.9792  -13.4549    0.0000 C    0  0  0  0  0  0  0  0  0  0  0  0
   16.0567  -11.3438    0.0000 C    0  0  0  0  0  0  0  0  0  0  0  0
   15.7638  -13.9963    0.0000 C    0  0  0  0  0  0  0  0  0  0  0  0
   14.8413  -11.8852    0.0000 C    0  0  0  0  0  0  0  0  0  0  0  0
   14.6907  -13.2068    0.0000 C    0  0  0  0  0  0  0  0  0  0  0  0
   18.0523  -11.3882    0.0000 C    0  0  0  0  0  0  0  0  0  0  0  0
   19.3739  -11.5300    0.0000 C    0  0  0  0  0  0  0  0  0  0  0  0
   17.5201  -10.1733    0.0000 C    0  0  0  0  0  0  0  0  0  0  0  0
   20.1634  -10.4657    0.0000 C    0  0  0  0  0  0  0  0  0  0  0  0
   18.3004   -9.1089    0.0000 C    0  0  0  0  0  0  0  0  0  0  0  0
   19.6220   -9.2415    0.0000 C    0  0  0  0  0  0  0  0  0  0  0  0
   14.8769   -9.8804    0.0000 C    0  0  0  0  0  0  0  0  0  0  0  0
   14.3447   -8.6655    0.0000 C    0  0  0  0  0  0  0  0  0  0  0  0
   14.0874  -10.9535    0.0000 C    0  0  0  0  0  0  0  0  0  0  0  0
   13.0231   -8.5236    0.0000 C    0  0  0  0  0  0  0  0  0  0  0  0
   12.7658  -10.8029    0.0000 C    0  0  0  0  0  0  0  0  0  0  0  0
   12.2336   -9.5875    0.0000 C    0  0  0  0  0  0  0  0  0  0  0  0
   16.5713   -8.7542    0.0000 Rh   0  0  0  0  0  0  0  0  0  0  0  0
   17.6268   -7.9384    0.0000 Cl   0  0  0  0  0  0  0  0  0  0  0  0
   15.2584   -8.5680    0.0000 O    0  0  0  0  0  0  0  0  0  0  0  0
   14.7618   -7.3351    0.0000 O    0  0  0  0  0  0  0  0  0  0  0  0
   15.5864   -6.0310    0.0000 P    0  0  0  0  0  0  0  0  0  0  0  0
   20.8993  -12.9495    0.0000 P    0  0  0  0  0  0  0  0  0  0  0  0
   16.1985  -10.0222    0.0000 P    0  0  0  0  0  0  0  0  0  0  0  0
  1  2  1  0  0  0  0
  1  3  2  0  0  0  0
  2  4  2  0  0  0  0
  3  5  1  0  0  0  0
  4  6  1  0  0  0  0
  5  6  2  0  0  0  0
  7  8  1  0  0  0  0
  7  9  2  0  0  0  0
  8 10  2  0  0  0  0
  9 11  1  0  0  0  0
 10 12  1  0  0  0  0
 11 12  2  0  0  0  0
 13 14  1  0  0  0  0
 13 15  2  0  0  0  0
 14 16  2  0  0  0  0
 15 17  1  0  0  0  0
 16 18  1  0  0  0  0
 17 18  2  0  0  0  0
 19 20  1  0  0  0  0
 19 21  2  0  0  0  0
 20 22  2  0  0  0  0
 21 23  1  0  0  0  0
 22 24  1  0  0  0  0
 23 24  2  0  0  0  0
 25 26  1  0  0  0  0
 25 27  2  0  0  0  0
 26 28  2  0  0  0  0
 27 29  1  0  0  0  0
 28 30  1  0  0  0  0
 29 30  2  0  0  0  0
 31 32  1  0  0  0  0
 31 33  2  0  0  0  0
 32 34  2  0  0  0  0
 33 35  1  0  0  0  0
 34 36  1  0  0  0  0
 35 36  2  0  0  0  0
 37 38  1  0  0  0  0
 37 39  2  0  0  0  0
 38 40  2  0  0  0  0
 39 41  1  0  0  0  0
 40 42  1  0  0  0  0
 41 42  2  0  0  0  0
 43 44  1  0  0  0  0
 43 45  2  0  0  0  0
 44 46  2  0  0  0  0
 45 47  1  0  0  0  0
 46 48  1  0  0  0  0
 47 48  2  0  0  0  0
 49 50  1  0  0  0  0
 49 51  2  0  0  0  0
 50 52  2  0  0  0  0
 51 53  1  0  0  0  0
 52 54  1  0  0  0  0
 53 54  2  0  0  0  0
 55 56  1  0  0  0  0
 55 57  1  0  0  0  0
 57 58  2  0  0  0  0
 55 59  1  0  0  0  0
 55 60  1  0  0  0  0
 55 61  1  0  0  0  0
 49 61  1  0  0  0  0
 45 61  1  0  0  0  0
 39 61  1  0  0  0  0
 33 60  1  0  0  0  0
 29 60  1  0  0  0  0
 23 60  1  0  0  0  0
 18 59  1  0  0  0  0
 10 59  1  0  0  0  0
  6 59  1  0  0  0  0
M  END
> <NMREDATA_VERSION>
1.1

> <NMREDATA_LEVEL>
0

> <NMREDATA_SOLVENT>
DCCl3

> <NMREDATA_TEMPERATURE>
300

> <NMREDATA_FORMULA>
C54H48ClO2P3Rh

> <NMREDATA_SMILES>
O=[O][Rh](P(c1ccccc1)(c1ccccc1)c1ccccc1)(P(c1ccccc1)(c1ccccc1)c1ccccc1)(P(c1ccccc1)(c1ccccc1)c1ccccc1)Cl

> <NMREDATA_ASSIGNMENT>
Rh55, 3130.00, 55

> <NMREDATA_1D_103Rh>
3130.00, L=Rh55

$$$$

  ACD/LABS04022410072D

 61 69  0  0  0  0  0  0  0  0  1 V2000
   23.6268  -11.0088    0.0000 C    0  0  0  0  0  0  0  0  0  0  0  0
   23.8538  -12.3174    0.0000 C    0  0  0  0  0  0  0  0  0  0  0  0
   22.3747  -10.5520    0.0000 C    0  0  0  0  0  0  0  0  0  0  0  0
   22.8372  -13.1741    0.0000 C    0  0  0  0  0  0  0  0  0  0  0  0
   21.3581  -11.4087    0.0000 C    0  0  0  0  0  0  0  0  0  0  0  0
   21.5855  -12.7175    0.0000 C    0  0  0  0  0  0  0  0  0  0  0  0
   18.3053   -7.9364    0.0000 C    0  0  0  0  0  0  0  0  0  0  0  0
   19.3185   -8.7875    0.0000 C    0  0  0  0  0  0  0  0  0  0  0  0
   17.0581   -8.3939    0.0000 C    0  0  0  0  0  0  0  0  0  0  0  0
   19.0852  -10.0965    0.0000 C    0  0  0  0  0  0  0  0  0  0  0  0
   16.8248   -9.7028    0.0000 C    0  0  0  0  0  0  0  0  0  0  0  0
   17.8380  -10.5539    0.0000 C    0  0  0  0  0  0  0  0  0  0  0  0
   22.7717   -8.6412    0.0000 C    0  0  0  0  0  0  0  0  0  0  0  0
   22.1059   -7.4891    0.0000 C    0  0  0  0  0  0  0  0  0  0  0  0
   22.1065   -9.7933    0.0000 C    0  0  0  0  0  0  0  0  0  0  0  0
   20.7752   -7.4884    0.0000 C    0  0  0  0  0  0  0  0  0  0  0  0
   20.7759   -9.7927    0.0000 C    0  0  0  0  0  0  0  0  0  0  0  0
   20.1100   -8.6406    0.0000 C    0  0  0  0  0  0  0  0  0  0  0  0
    9.9450  -12.6624    0.0000 C    0  0  0  0  0  0  0  0  0  0  0  0
    9.4923  -11.4077    0.0000 C    0  0  0  0  0  0  0  0  0  0  0  0
   11.2588  -12.8882    0.0000 C    0  0  0  0  0  0  0  0  0  0  0  0
   10.3359  -10.3897    0.0000 C    0  0  0  0  0  0  0  0  0  0  0  0
   12.1068  -11.8625    0.0000 C    0  0  0  0  0  0  0  0  0  0  0  0
   11.6493  -10.6153    0.0000 C    0  0  0  0  0  0  0  0  0  0  0  0
   12.6278   -9.9311    0.0000 C    0  0  0  0  0  0  0  0  0  0  0  0
   12.8491   -8.6259    0.0000 C    0  0  0  0  0  0  0  0  0  0  0  0
   13.6494  -10.7870    0.0000 C    0  0  0  0  0  0  0  0  0  0  0  0
   14.1039   -8.1729    0.0000 C    0  0  0  0  0  0  0  0  0  0  0  0
   14.8916  -10.3374    0.0000 C    0  0  0  0  0  0  0  0  0  0  0  0
   15.1175   -9.0242    0.0000 C    0  0  0  0  0  0  0  0  0  0  0  0
   14.2156  -14.2575    0.0000 C    0  0  0  0  0  0  0  0  0  0  0  0
   13.9820  -15.5663    0.0000 C    0  0  0  0  0  0  0  0  0  0  0  0
   13.1896  -13.4093    0.0000 C    0  0  0  0  0  0  0  0  0  0  0  0
   12.7349  -16.0238    0.0000 C    0  0  0  0  0  0  0  0  0  0  0  0
   11.9428  -13.8670    0.0000 C    0  0  0  0  0  0  0  0  0  0  0  0
   11.7092  -15.1757    0.0000 C    0  0  0  0  0  0  0  0  0  0  0  0
   17.1447  -15.6211    0.0000 C    0  0  0  0  0  0  0  0  0  0  0  0
   15.8312  -15.3950    0.0000 C    0  0  0  0  0  0  0  0  0  0  0  0
   17.6022  -16.8683    0.0000 C    0  0  0  0  0  0  0  0  0  0  0  0
   14.9875  -16.4130    0.0000 C    0  0  0  0  0  0  0  0  0  0  0  0
   16.7538  -17.8937    0.0000 C    0  0  0  0  0  0  0  0  0  0  0  0
   15.4406  -17.6678    0.0000 C    0  0  0  0  0  0  0  0  0  0  0  0
   15.7278  -14.2090    0.0000 C    0  0  0  0  0  0  0  0  0  0  0  0
   16.9750  -13.7515    0.0000 C    0  0  0  0  0  0  0  0  0  0  0  0
   14.7146  -13.3579    0.0000 C    0  0  0  0  0  0  0  0  0  0  0  0
   17.2082  -12.4425    0.0000 C    0  0  0  0  0  0  0  0  0  0  0  0
   14.9479  -12.0489    0.0000 C    0  0  0  0  0  0  0  0  0  0  0  0
   16.1950  -11.5914    0.0000 C    0  0  0  0  0  0  0  0  0  0  0  0
   21.2900  -15.8539    0.0000 C    0  0  0  0  0  0  0  0  0  0  0  0
   20.2688  -14.9981    0.0000 C    0  0  0  0  0  0  0  0  0  0  0  0
   21.0564  -17.1626    0.0000 C    0  0  0  0  0  0  0  0  0  0  0  0
   19.0217  -15.4556    0.0000 C    0  0  0  0  0  0  0  0  0  0  0  0
   19.8096  -17.6203    0.0000 C    0  0  0  0  0  0  0  0  0  0  0  0
   18.7880  -16.7644    0.0000 C    0  0  0  0  0  0  0  0  0  0  0  0
   19.4457  -12.0967    0.0000 Rh   0  0  0  0  0  0  0  0  0  0  0  0
   20.7765  -12.0969    0.0000 Cl   0  0  0  0  0  0  0  0  0  0  0  0
   18.7800  -10.9442    0.0000 Cl   0  0  0  0  0  0  0  0  0  0  0  0
   20.1115  -13.2488    0.0000 Cl   0  0  0  0  0  0  0  0  0  0  0  0
   20.1107  -10.9449    0.0000 P    0  0  0  0  0  0  0  0  0  0  0  0
   13.4156  -12.0961    0.0000 P    0  0  0  0  0  0  0  0  0  0  0  0
   18.0006  -14.5995    0.0000 P    0  0  0  0  0  0  0  0  0  0  0  0
  1  2  1  0  0  0  0
  1  3  2  0  0  0  0
  2  4  2  0  0  0  0
  3  5  1  0  0  0  0
  4  6  1  0  0  0  0
  5  6  2  0  0  0  0
  7  8  1  0  0  0  0
  7  9  2  0  0  0  0
  8 10  2  0  0  0  0
  9 11  1  0  0  0  0
 10 12  1  0  0  0  0
 11 12  2  0  0  0  0
 13 14  1  0  0  0  0
 13 15  2  0  0  0  0
 14 16  2  0  0  0  0
 15 17  1  0  0  0  0
 16 18  1  0  0  0  0
 17 18  2  0  0  0  0
 19 20  1  0  0  0  0
 19 21  2  0  0  0  0
 20 22  2  0  0  0  0
 21 23  1  0  0  0  0
 22 24  1  0  0  0  0
 23 24  2  0  0  0  0
 25 26  1  0  0  0  0
 25 27  2  0  0  0  0
 26 28  2  0  0  0  0
 27 29  1  0  0  0  0
 28 30  1  0  0  0  0
 29 30  2  0  0  0  0
 31 32  1  0  0  0  0
 31 33  2  0  0  0  0
 32 34  2  0  0  0  0
 33 35  1  0  0  0  0
 34 36  1  0  0  0  0
 35 36  2  0  0  0  0
 37 38  1  0  0  0  0
 37 39  2  0  0  0  0
 38 40  2  0  0  0  0
 39 41  1  0  0  0  0
 40 42  1  0  0  0  0
 41 42  2  0  0  0  0
 43 44  1  0  0  0  0
 43 45  2  0  0  0  0
 44 46  2  0  0  0  0
 45 47  1  0  0  0  0
 46 48  1  0  0  0  0
 47 48  2  0  0  0  0
 49 50  1  0  0  0  0
 49 51  2  0  0  0  0
 50 52  2  0  0  0  0
 51 53  1  0  0  0  0
 52 54  1  0  0  0  0
 53 54  2  0  0  0  0
 55 56  1  0  0  0  0
 55 57  1  0  0  0  0
 55 58  1  0  0  0  0
 55 59  1  0  0  0  0
 55 60  1  0  0  0  0
 55 61  1  0  0  0  0
 52 61  1  0  0  0  0
 44 61  1  0  0  0  0
 37 61  1  0  0  0  0
 33 60  1  0  0  0  0
 27 60  1  0  0  0  0
 23 60  1  0  0  0  0
 17 59  1  0  0  0  0
 10 59  1  0  0  0  0
  5 59  1  0  0  0  0
M  END
> <NMREDATA_VERSION>
1.1

> <NMREDATA_LEVEL>
0

> <NMREDATA_SOLVENT>
CD2Cl2

> <NMREDATA_TEMPERATURE>
305

> <NMREDATA_FORMULA>
C54H48Cl3P3Rh

> <NMREDATA_SMILES>
Cl[Rh](P(c1ccccc1)(c1ccccc1)c1ccccc1)(P(c1ccccc1)(c1ccccc1)c1ccccc1)(P(c1ccccc1)(c1ccccc1)c1ccccc1)(Cl)Cl

> <NMREDATA_ASSIGNMENT>
Rh55, 2770.00, 55

> <NMREDATA_1D_103Rh>
2770.00, L=Rh55

$$$$

  ACD/LABS04022410112D

 44 46  0  0  0  0  0  0  0  0  2 V2000
   16.9944  -13.3139    0.0000 Rh   0  3  0  0  0  0  0  0  0  0  0  0
   16.9944  -11.3269    0.0000 Cl   0  0  0  0  0  0  0  0  0  0  0  0
   18.7152  -14.3073    0.0000 Cl   0  0  0  0  0  0  0  0  0  0  0  0
   15.2736  -14.3073    0.0000 P    0  0  0  0  0  0  0  0  0  0  0  0
   14.2801  -12.5866    0.0000 C    0  0  0  0  0  0  0  0  0  0  0  0
   12.2932  -12.5866    0.0000 C    0  0  0  0  0  0  0  0  0  0  0  0
   15.2736  -10.8658    0.0000 C    0  0  0  0  0  0  0  0  0  0  0  0
   11.2997  -10.8658    0.0000 C    0  0  0  0  0  0  0  0  0  0  0  0
   14.2801   -9.1450    0.0000 C    0  0  0  0  0  0  0  0  0  0  0  0
   12.2932   -9.1450    0.0000 C    0  0  0  0  0  0  0  0  0  0  0  0
   13.5529  -15.3008    0.0000 C    0  0  0  0  0  0  0  0  0  0  0  0
   13.5529  -17.2878    0.0000 C    0  0  0  0  0  0  0  0  0  0  0  0
   11.8321  -14.3073    0.0000 C    0  0  0  0  0  0  0  0  0  0  0  0
   11.8321  -18.2813    0.0000 C    0  0  0  0  0  0  0  0  0  0  0  0
   10.1113  -15.3008    0.0000 C    0  0  0  0  0  0  0  0  0  0  0  0
   10.1113  -17.2878    0.0000 C    0  0  0  0  0  0  0  0  0  0  0  0
   16.2671  -16.0281    0.0000 C    0  0  0  0  0  0  0  0  0  0  0  0
   18.2541  -16.0281    0.0000 C    0  0  0  0  0  0  0  0  0  0  0  0
   19.2476  -17.7489    0.0000 S    0  0  0  0  0  0  0  0  0  0  0  0
   21.2346  -17.7489    0.0000 C    0  0  0  0  0  0  0  0  0  0  0  0
   22.2281  -19.4697    0.0000 C    0  0  0  0  0  0  0  0  0  0  0  0
   24.2151  -19.4697    0.0000 S    0  0  0  0  0  0  0  0  0  0  0  0
   25.2086  -21.1905    0.0000 C    0  0  0  0  0  0  0  0  0  0  0  0
   27.1956  -21.1905    0.0000 C    0  0  0  0  0  0  0  0  0  0  0  0
   28.1891  -22.9113    0.0000 P    0  0  0  0  0  0  0  0  0  0  0  0
   27.1956  -24.6320    0.0000 C    0  0  0  0  0  0  0  0  0  0  0  0
   28.1891  -26.3528    0.0000 C    0  0  0  0  0  0  0  0  0  0  0  0
   25.2086  -24.6320    0.0000 C    0  0  0  0  0  0  0  0  0  0  0  0
   27.1956  -28.0736    0.0000 C    0  0  0  0  0  0  0  0  0  0  0  0
   24.2151  -26.3528    0.0000 C    0  0  0  0  0  0  0  0  0  0  0  0
   25.2086  -28.0736    0.0000 C    0  0  0  0  0  0  0  0  0  0  0  0
   30.1761  -22.9113    0.0000 C    0  0  0  0  0  0  0  0  0  0  0  0
   31.1696  -21.1905    0.0000 C    0  0  0  0  0  0  0  0  0  0  0  0
   31.1696  -24.6320    0.0000 C    0  0  0  0  0  0  0  0  0  0  0  0
   33.1565  -21.1905    0.0000 C    0  0  0  0  0  0  0  0  0  0  0  0
   33.1565  -24.6320    0.0000 C    0  0  0  0  0  0  0  0  0  0  0  0
   34.1500  -22.9113    0.0000 C    0  0  0  0  0  0  0  0  0  0  0  0
   26.1674  -13.7407    0.0000 P    0  5  0  0  0  0  0  0  0  0  0  0
   25.3822  -12.3807    0.0000 F    0  0  0  0  0  0  0  0  0  0  0  0
   26.9525  -12.3807    0.0000 F    0  0  0  0  0  0  0  0  0  0  0  0
   27.7377  -13.7407    0.0000 F    0  0  0  0  0  0  0  0  0  0  0  0
   25.3822  -15.1006    0.0000 F    0  0  0  0  0  0  0  0  0  0  0  0
   24.5970  -13.7407    0.0000 F    0  0  0  0  0  0  0  0  0  0  0  0
   26.9525  -15.1006    0.0000 F    0  0  0  0  0  0  0  0  0  0  0  0
  1  2  1  0  0  0  0
  1  3  1  0  0  0  0
  1  4  1  0  0  0  0
  5  6  1  0  0  0  0
  5  7  2  0  0  0  0
  6  8  2  0  0  0  0
  7  9  1  0  0  0  0
  8 10  1  0  0  0  0
  9 10  2  0  0  0  0
  4  5  1  0  0  0  0
 11 12  1  0  0  0  0
 11 13  2  0  0  0  0
 12 14  2  0  0  0  0
 13 15  1  0  0  0  0
 14 16  1  0  0  0  0
 15 16  2  0  0  0  0
  4 11  1  0  0  0  0
  4 17  1  0  0  0  0
 17 18  1  0  0  0  0
 18 19  1  0  0  0  0
 19 20  1  0  0  0  0
 20 21  1  0  0  0  0
 21 22  1  0  0  0  0
 22 23  1  0  0  0  0
 23 24  1  0  0  0  0
 24 25  1  0  0  0  0
 26 27  1  0  0  0  0
 26 28  2  0  0  0  0
 27 29  2  0  0  0  0
 28 30  1  0  0  0  0
 29 31  1  0  0  0  0
 30 31  2  0  0  0  0
 25 26  1  0  0  0  0
 32 33  1  0  0  0  0
 32 34  2  0  0  0  0
 33 35  2  0  0  0  0
 34 36  1  0  0  0  0
 35 37  1  0  0  0  0
 36 37  2  0  0  0  0
 25 32  1  0  0  0  0
 38 39  1  0  0  0  0
 38 40  1  0  0  0  0
 38 41  1  0  0  0  0
 38 42  1  0  0  0  0
 38 43  1  0  0  0  0
 38 44  1  0  0  0  0
M  END
> <NMREDATA_VERSION>
1.1

> <NMREDATA_LEVEL>
0

> <NMREDATA_SOLVENT>
CD3CN

> <NMREDATA_TEMPERATURE>
300

> <NMREDATA_FORMULA>
C30H33Cl2F6P3RhS2

> <NMREDATA_SMILES>
F[P](F)(F)(F)(F)F.Cl[Rh](P(c1ccccc1)(c1ccccc1)CCSCCSCCP(c1ccccc1)c1ccccc1)Cl

> <NMREDATA_ASSIGNMENT>
Rh1, 1405.00, 1

> <NMREDATA_1D_103Rh>
1405.00, L=Rh1

$$$$

  ACD/LABS04022410182D

 61 69  0  0  0  0  0  0  0  0  1 V2000
   16.3341  -11.5024    0.0000 C    0  0  0  0  0  0  0  0  0  0  0  0
   15.3126  -12.3583    0.0000 C    0  0  0  0  0  0  0  0  0  0  0  0
   17.5810  -11.9601    0.0000 C    0  0  0  0  0  0  0  0  0  0  0  0
   15.5462  -13.6671    0.0000 C    0  0  0  0  0  0  0  0  0  0  0  0
   17.8146  -13.2688    0.0000 C    0  0  0  0  0  0  0  0  0  0  0  0
   16.7933  -14.1245    0.0000 C    0  0  0  0  0  0  0  0  0  0  0  0
   11.0126  -14.5748    0.0000 C    0  0  0  0  0  0  0  0  0  0  0  0
   12.2563  -14.1229    0.0000 C    0  0  0  0  0  0  0  0  0  0  0  0
   10.7852  -15.8836    0.0000 C    0  0  0  0  0  0  0  0  0  0  0  0
   13.2732  -14.9794    0.0000 C    0  0  0  0  0  0  0  0  0  0  0  0
   11.8022  -16.7401    0.0000 C    0  0  0  0  0  0  0  0  0  0  0  0
   13.0458  -16.2882    0.0000 C    0  0  0  0  0  0  0  0  0  0  0  0
   14.5214  -12.2112    0.0000 C    0  0  0  0  0  0  0  0  0  0  0  0
   13.8555  -13.3633    0.0000 C    0  0  0  0  0  0  0  0  0  0  0  0
   13.8562  -11.0591    0.0000 C    0  0  0  0  0  0  0  0  0  0  0  0
   12.5248  -13.3639    0.0000 C    0  0  0  0  0  0  0  0  0  0  0  0
   12.5255  -11.0597    0.0000 C    0  0  0  0  0  0  0  0  0  0  0  0
   11.8596  -12.2118    0.0000 C    0  0  0  0  0  0  0  0  0  0  0  0
   15.1857  -15.6673    0.0000 Rh   0  0  0  0  0  0  0  0  0  0  0  0
   15.8514  -14.5149    0.0000 Br   0  0  0  0  0  0  0  0  0  0  0  0
   13.8548  -15.6676    0.0000 Br   0  0  0  0  0  0  0  0  0  0  0  0
   16.5164  -15.6667    0.0000 Br   0  0  0  0  0  0  0  0  0  0  0  0
   14.5207  -14.5155    0.0000 P    0  0  0  0  0  0  0  0  0  0  0  0
   12.1702  -20.8892    0.0000 P    0  0  0  0  0  0  0  0  0  0  0  0
   16.6307  -18.1702    0.0000 P    0  0  0  0  0  0  0  0  0  0  0  0
   15.2313  -23.4426    0.0000 C    0  0  0  0  0  0  0  0  0  0  0  0
   15.4587  -22.1338    0.0000 C    0  0  0  0  0  0  0  0  0  0  0  0
   13.9840  -23.9068    0.0000 C    0  0  0  0  0  0  0  0  0  0  0  0
   14.4421  -21.2771    0.0000 C    0  0  0  0  0  0  0  0  0  0  0  0
   12.9674  -23.0501    0.0000 C    0  0  0  0  0  0  0  0  0  0  0  0
   13.1945  -21.7415    0.0000 C    0  0  0  0  0  0  0  0  0  0  0  0
    9.1167  -18.3315    0.0000 C    0  0  0  0  0  0  0  0  0  0  0  0
    8.8817  -19.6447    0.0000 C    0  0  0  0  0  0  0  0  0  0  0  0
   10.3608  -17.8793    0.0000 C    0  0  0  0  0  0  0  0  0  0  0  0
    9.9013  -20.4889    0.0000 C    0  0  0  0  0  0  0  0  0  0  0  0
   11.3851  -18.7316    0.0000 C    0  0  0  0  0  0  0  0  0  0  0  0
   11.1534  -20.0322    0.0000 C    0  0  0  0  0  0  0  0  0  0  0  0
    9.6124  -23.9427    0.0000 C    0  0  0  0  0  0  0  0  0  0  0  0
   10.9253  -24.1779    0.0000 C    0  0  0  0  0  0  0  0  0  0  0  0
    9.1526  -22.7031    0.0000 C    0  0  0  0  0  0  0  0  0  0  0  0
   11.7777  -23.1531    0.0000 C    0  0  0  0  0  0  0  0  0  0  0  0
   10.0047  -21.6784    0.0000 C    0  0  0  0  0  0  0  0  0  0  0  0
   11.3135  -21.9058    0.0000 C    0  0  0  0  0  0  0  0  0  0  0  0
   18.1100  -16.4051    0.0000 C    0  0  0  0  0  0  0  0  0  0  0  0
   19.3617  -15.9486    0.0000 C    0  0  0  0  0  0  0  0  0  0  0  0
   17.8826  -17.7140    0.0000 C    0  0  0  0  0  0  0  0  0  0  0  0
   20.3783  -16.8053    0.0000 C    0  0  0  0  0  0  0  0  0  0  0  0
   18.8992  -18.5707    0.0000 C    0  0  0  0  0  0  0  0  0  0  0  0
   20.1513  -18.1139    0.0000 C    0  0  0  0  0  0  0  0  0  0  0  0
   15.1561  -19.9432    0.0000 C    0  0  0  0  0  0  0  0  0  0  0  0
   13.9124  -20.3951    0.0000 C    0  0  0  0  0  0  0  0  0  0  0  0
   15.3835  -18.6344    0.0000 C    0  0  0  0  0  0  0  0  0  0  0  0
   12.8954  -19.5386    0.0000 C    0  0  0  0  0  0  0  0  0  0  0  0
   14.3665  -17.7779    0.0000 C    0  0  0  0  0  0  0  0  0  0  0  0
   13.1229  -18.2298    0.0000 C    0  0  0  0  0  0  0  0  0  0  0  0
   18.3963  -19.6496    0.0000 C    0  0  0  0  0  0  0  0  0  0  0  0
   18.8602  -20.8971    0.0000 C    0  0  0  0  0  0  0  0  0  0  0  0
   17.0875  -19.4222    0.0000 C    0  0  0  0  0  0  0  0  0  0  0  0
   18.0079  -21.9214    0.0000 C    0  0  0  0  0  0  0  0  0  0  0  0
   16.2349  -20.4467    0.0000 C    0  0  0  0  0  0  0  0  0  0  0  0
   16.6947  -21.6863    0.0000 C    0  0  0  0  0  0  0  0  0  0  0  0
  1  2  1  0  0  0  0
  1  3  2  0  0  0  0
  2  4  2  0  0  0  0
  3  5  1  0  0  0  0
  4  6  1  0  0  0  0
  5  6  2  0  0  0  0
  7  8  1  0  0  0  0
  7  9  2  0  0  0  0
  8 10  2  0  0  0  0
  9 11  1  0  0  0  0
 10 12  1  0  0  0  0
 11 12  2  0  0  0  0
 13 14  1  0  0  0  0
 13 15  2  0  0  0  0
 14 16  2  0  0  0  0
 15 17  1  0  0  0  0
 16 18  1  0  0  0  0
 17 18  2  0  0  0  0
 19 20  1  0  0  0  0
 19 21  1  0  0  0  0
 19 22  1  0  0  0  0
 19 23  1  0  0  0  0
 19 24  1  0  0  0  0
 19 25  1  0  0  0  0
 14 23  1  0  0  0  0
 10 23  1  0  0  0  0
  4 23  1  0  0  0  0
 26 27  1  0  0  0  0
 26 28  2  0  0  0  0
 27 29  2  0  0  0  0
 28 30  1  0  0  0  0
 29 31  1  0  0  0  0
 30 31  2  0  0  0  0
 24 31  1  0  0  0  0
 32 33  1  0  0  0  0
 32 34  2  0  0  0  0
 33 35  2  0  0  0  0
 34 36  1  0  0  0  0
 35 37  1  0  0  0  0
 36 37  2  0  0  0  0
 24 37  1  0  0  0  0
 38 39  1  0  0  0  0
 38 40  2  0  0  0  0
 39 41  2  0  0  0  0
 40 42  1  0  0  0  0
 41 43  1  0  0  0  0
 42 43  2  0  0  0  0
 24 43  1  0  0  0  0
 44 45  1  0  0  0  0
 44 46  2  0  0  0  0
 45 47  2  0  0  0  0
 46 48  1  0  0  0  0
 47 49  1  0  0  0  0
 48 49  2  0  0  0  0
 25 46  1  0  0  0  0
 50 51  1  0  0  0  0
 50 52  2  0  0  0  0
 51 53  2  0  0  0  0
 52 54  1  0  0  0  0
 53 55  1  0  0  0  0
 54 55  2  0  0  0  0
 25 52  1  0  0  0  0
 56 57  1  0  0  0  0
 56 58  2  0  0  0  0
 57 59  2  0  0  0  0
 58 60  1  0  0  0  0
 59 61  1  0  0  0  0
 60 61  2  0  0  0  0
 25 58  1  0  0  0  0
M  END
> <NMREDATA_VERSION>
1.1

> <NMREDATA_LEVEL>
0

> <NMREDATA_SOLVENT>
CD2Cl2

> <NMREDATA_TEMPERATURE>
305

> <NMREDATA_FORMULA>
C54H48Br3P3Rh

> <NMREDATA_SMILES>
Br[Rh](P(c1ccccc1)(c1ccccc1)c1ccccc1)(P(c1ccccc1)(c1ccccc1)c1ccccc1)(P(c1ccccc1)(c1ccccc1)c1ccccc1)(Br)Br

> <NMREDATA_ASSIGNMENT>
Rh19, 2334.00, 19

> <NMREDATA_1D_103Rh>
2334.00, L=Rh19

$$$$

  ACD/LABS04022410222D

 28 24  0  0  0  0  0  0  0  0  2 V2000
   16.1603  -18.4357    0.0000 Rh   0  0  0  0  0  0  0  0  0  0  0  0
   14.2591  -17.3381    0.0000 N    0  3  0  0  0  0  0  0  0  0  0  0
   16.1603  -16.2404    0.0000 N    0  3  0  0  0  0  0  0  0  0  0  0
   18.0615  -17.3381    0.0000 N    0  3  0  0  0  0  0  0  0  0  0  0
   16.1603  -20.6310    0.0000 N    0  0  0  0  0  0  0  0  0  0  0  0
   14.2591  -19.5334    0.0000 N    0  0  0  0  0  0  0  0  0  0  0  0
   18.0615  -19.5334    0.0000 N    0  0  0  0  0  0  0  0  0  0  0  0
   12.3579  -16.2404    0.0000 H    0  0  0  0  0  0  0  0  0  0  0  0
   13.1615  -19.2393    0.0000 H    0  0  0  0  0  0  0  0  0  0  0  0
   15.3568  -15.4369    0.0000 H    0  0  0  0  0  0  0  0  0  0  0  0
   13.9650  -16.2404    0.0000 H    0  0  0  0  0  0  0  0  0  0  0  0
   18.3556  -16.2404    0.0000 H    0  0  0  0  0  0  0  0  0  0  0  0
   16.1603  -14.0451    0.0000 H    0  0  0  0  0  0  0  0  0  0  0  0
   16.9638  -15.4369    0.0000 H    0  0  0  0  0  0  0  0  0  0  0  0
   19.1591  -19.2393    0.0000 H    0  0  0  0  0  0  0  0  0  0  0  0
   19.9627  -16.2404    0.0000 H    0  0  0  0  0  0  0  0  0  0  0  0
   18.3556  -20.6310    0.0000 H    0  0  0  0  0  0  0  0  0  0  0  0
   13.9650  -20.6310    0.0000 H    0  0  0  0  0  0  0  0  0  0  0  0
   16.1603  -22.8263    0.0000 H    0  0  0  0  0  0  0  0  0  0  0  0
   15.3568  -21.4346    0.0000 H    0  0  0  0  0  0  0  0  0  0  0  0
   13.1615  -17.6322    0.0000 H    0  0  0  0  0  0  0  0  0  0  0  0
   12.3579  -20.6310    0.0000 H    0  0  0  0  0  0  0  0  0  0  0  0
   19.1591  -17.6322    0.0000 H    0  0  0  0  0  0  0  0  0  0  0  0
   16.9638  -21.4346    0.0000 H    0  0  0  0  0  0  0  0  0  0  0  0
   19.9627  -20.6310    0.0000 H    0  0  0  0  0  0  0  0  0  0  0  0
   23.8599  -13.4442    0.0000 Cl   0  5  0  0  0  0  0  0  0  0  0  0
   23.6355  -14.4858    0.0000 Cl   0  5  0  0  0  0  0  0  0  0  0  0
   24.7412  -14.2615    0.0000 Cl   0  5  0  0  0  0  0  0  0  0  0  0
  1  2  1  0  0  0  0
  1  3  1  0  0  0  0
  1  4  1  0  0  0  0
  1  5  1  0  0  0  0
  1  6  1  0  0  0  0
  1  7  1  0  0  0  0
  2  8  1  0  0  0  0
  2  9  1  0  0  0  0
  2 10  1  0  0  0  0
  3 11  1  0  0  0  0
  3 12  1  0  0  0  0
  3 13  1  0  0  0  0
  4 14  1  0  0  0  0
  4 15  1  0  0  0  0
  4 16  1  0  0  0  0
  5 17  1  0  0  0  0
  5 18  1  0  0  0  0
  5 19  1  0  0  0  0
  6 20  1  0  0  0  0
  6 21  1  0  0  0  0
  6 22  1  0  0  0  0
  7 23  1  0  0  0  0
  7 24  1  0  0  0  0
  7 25  1  0  0  0  0
M  END
> <NMREDATA_VERSION>
1.1

> <NMREDATA_LEVEL>
0

> <NMREDATA_SOLVENT>
NH3 (aq)

> <NMREDATA_TEMPERATURE>
276

> <NMREDATA_FORMULA>
Cl3H27N6Rh

> <NMREDATA_SMILES>
[NH4][Rh]([NH4])([NH4])([NH4])([NH4])[NH4].Cl.Cl.Cl

> <NMREDATA_ASSIGNMENT>
Rh1, 4766.00, 1

> <NMREDATA_1D_103Rh>
4766.00, L=Rh1

$$$$

  ACD/LABS04022410242D

 22 18  0  0  0  0  0  0  0  0  3 V2000
   17.4055  -17.6693    0.0000 N    0  0  0  0  0  0  0  0  0  0  0  0
   16.2523  -16.9994    0.0000 O    0  5  0  0  0  0  0  0  0  0  0  0
   17.3960  -16.3346    0.0000 O    0  0  0  0  0  0  0  0  0  0  0  0
   18.7686  -20.0736    0.0000 N    0  0  0  0  0  0  0  0  0  0  0  0
   19.9542  -20.7064    0.0000 O    0  5  0  0  0  0  0  0  0  0  0  0
   18.7245  -21.4028    0.0000 O    0  0  0  0  0  0  0  0  0  0  0  0
   19.4910  -18.8289    0.0000 N    0  0  0  0  0  0  0  0  0  0  0  0
   20.6221  -18.1324    0.0000 O    0  5  0  0  0  0  0  0  0  0  0  0
   20.6374  -19.5359    0.0000 O    0  0  0  0  0  0  0  0  0  0  0  0
   18.0881  -18.8515    0.0000 Rh   0  7  0  0  0  0  0  0  0  0  0  0
   17.2157  -20.2547    0.0000 N    0  0  0  0  0  0  0  0  0  0  0  0
   16.0423  -20.8036    0.0000 O    0  5  0  0  0  0  0  0  0  0  0  0
   17.3702  -21.5566    0.0000 O    0  0  0  0  0  0  0  0  0  0  0  0
   16.4315  -18.8237    0.0000 N    0  0  0  0  0  0  0  0  0  0  0  0
   15.3567  -18.0652    0.0000 O    0  5  0  0  0  0  0  0  0  0  0  0
   15.3847  -19.5836    0.0000 O    0  0  0  0  0  0  0  0  0  0  0  0
   18.8845  -17.3928    0.0000 N    0  0  0  0  0  0  0  0  0  0  0  0
   18.7710  -16.0840    0.0000 O    0  5  0  0  0  0  0  0  0  0  0  0
   20.0844  -16.8727    0.0000 O    0  0  0  0  0  0  0  0  0  0  0  0
   26.9846  -14.8864    0.0000 Na   0  3  0  0  0  0  0  0  0  0  0  0
   26.9045  -15.9600    0.0000 Na   0  3  0  0  0  0  0  0  0  0  0  0
   28.6511  -16.0081    0.0000 Na   0  3  0  0  0  0  0  0  0  0  0  0
  1  2  1  0  0  0  0
  1  3  2  0  0  0  0
  4  5  1  0  0  0  0
  4  6  2  0  0  0  0
  7  8  1  0  0  0  0
  7  9  2  0  0  0  0
 11 12  1  0  0  0  0
 11 13  2  0  0  0  0
 10 11  1  0  0  0  0
 14 15  1  0  0  0  0
 14 16  2  0  0  0  0
 10 14  1  0  0  0  0
 17 18  1  0  0  0  0
 17 19  2  0  0  0  0
 10 17  1  0  0  0  0
  7 10  1  0  0  0  0
  4 10  1  0  0  0  0
  1 10  1  0  0  0  0
M  END
> <NMREDATA_VERSION>
1.1

> <NMREDATA_LEVEL>
0

> <NMREDATA_SOLVENT>
H2O

> <NMREDATA_TEMPERATURE>
298

> <NMREDATA_FORMULA>
H15N6Na3O12Rh

> <NMREDATA_SMILES>
ON(=O)[Rh](N(=O)O)(N(=O)O)(N(=O)O)(N(=O)O)N(=O)O.[NaH].[NaH].[NaH]

> <NMREDATA_ASSIGNMENT>
Rh10, 5580.00, 10

> <NMREDATA_1D_103Rh>
5580.00, L=Rh10

$$$$

  ACD/LABS04022410252D

 19 18  0  0  0  0  0  0  0  0  2 V2000
   16.9204  -18.1509    0.0000 O    0  0  0  0  0  0  0  0  0  0  0  0
   15.5883  -18.1473    0.0000 H    0  0  0  0  0  0  0  0  0  0  0  0
   16.2456  -17.0010    0.0000 H    0  0  0  0  0  0  0  0  0  0  0  0
   19.3002  -19.5499    0.0000 N    0  0  0  0  0  0  0  0  0  0  0  0
   20.6419  -19.5052    0.0000 O    0  5  0  0  0  0  0  0  0  0  0  0
   19.9260  -20.7218    0.0000 O    0  0  0  0  0  0  0  0  0  0  0  0
   19.3035  -18.1124    0.0000 O    0  0  0  0  0  0  0  0  0  0  0  0
   19.9341  -16.9451    0.0000 H    0  0  0  0  0  0  0  0  0  0  0  0
   20.6483  -18.1514    0.0000 H    0  0  0  0  0  0  0  0  0  0  0  0
   18.1013  -18.8326    0.0000 Rh   0  0  0  0  0  0  0  0  0  0  0  0
   18.0474  -20.4821    0.0000 N    0  0  0  0  0  0  0  0  0  0  0  0
   17.3065  -21.5430    0.0000 O    0  5  0  0  0  0  0  0  0  0  0  0
   18.8313  -21.5311    0.0000 O    0  0  0  0  0  0  0  0  0  0  0  0
   16.6544  -19.6359    0.0000 N    0  0  0  0  0  0  0  0  0  0  0  0
   15.3458  -19.5165    0.0000 O    0  5  0  0  0  0  0  0  0  0  0  0
   16.1284  -20.8161    0.0000 O    0  0  0  0  0  0  0  0  0  0  0  0
   18.0617  -17.1731    0.0000 O    0  0  0  0  0  0  0  0  0  0  0  0
   17.3099  -16.0976    0.0000 H    0  0  0  0  0  0  0  0  0  0  0  0
   18.8399  -16.1239    0.0000 H    0  0  0  0  0  0  0  0  0  0  0  0
  1  2  1  0  0  0  0
  1  3  1  0  0  0  0
  4  5  1  0  0  0  0
  4  6  2  0  0  0  0
  7  8  1  0  0  0  0
  7  9  1  0  0  0  0
 11 12  1  0  0  0  0
 11 13  2  0  0  0  0
 10 11  1  0  0  0  0
 14 15  1  0  0  0  0
 14 16  2  0  0  0  0
 10 14  1  0  0  0  0
 17 18  1  0  0  0  0
 17 19  1  0  0  0  0
 10 17  1  0  0  0  0
  7 10  1  0  0  0  0
  4 10  1  0  0  0  0
  1 10  1  0  0  0  0
M  END
> <NMREDATA_VERSION>
1.1

> <NMREDATA_LEVEL>
0

> <NMREDATA_SOLVENT>
H2O

> <NMREDATA_TEMPERATURE>
298

> <NMREDATA_FORMULA>
H12N3O9Rh

> <NMREDATA_SMILES>
ON(=O)[Rh](N(=O)O)(N(=O)O)([OH2])([OH2])[OH2]

> <NMREDATA_ASSIGNMENT>
Rh10, 6570.00, 10

> <NMREDATA_1D_103Rh>
6570.00, L=Rh10

$$$$

  ACD/LABS04022410282D

 13 12  0  0  0  0  0  0  0  0  1 V2000
   16.8574  -18.1713    0.0000 Rh   0  0  0  0  0  0  0  0  0  0  0  0
   14.6621  -17.2259    0.0000 Cl   0  0  0  0  0  0  0  0  0  0  0  0
   14.3255  -18.6040    0.0000 Cl   0  0  0  0  0  0  0  0  0  0  0  0
   21.3281  -18.9084    0.0000 Cl   0  0  0  0  0  0  0  0  0  0  0  0
   18.5890  -17.5241    0.0000 N    0  0  0  0  0  0  0  0  0  0  0  0
   20.6251  -16.7166    0.0000 C    0  0  0  0  0  0  0  0  0  0  0  0
   16.8078  -19.9070    0.0000 N    0  0  0  0  0  0  0  0  0  0  0  0
   16.6621  -21.6908    0.0000 C    0  0  0  0  0  0  0  0  0  0  0  0
   16.7187  -16.1475    0.0000 N    0  0  0  0  0  0  0  0  0  0  0  0
   16.8846  -13.9634    0.0000 C    0  0  0  0  0  0  0  0  0  0  0  0
   16.9535  -12.5308    0.0000 C    0  0  0  0  0  0  0  0  0  0  0  0
   22.2735  -16.1202    0.0000 C    0  0  0  0  0  0  0  0  0  0  0  0
   16.7452  -22.6901    0.0000 C    0  0  0  0  0  0  0  0  0  0  0  0
  1  2  1  0  0  0  0
  1  3  1  0  0  0  0
  1  4  1  0  0  0  0
  5  6  3  0  0  0  0
  1  5  1  0  0  0  0
  7  8  3  0  0  0  0
  1  7  1  0  0  0  0
  9 10  3  0  0  0  0
  1  9  1  0  0  0  0
 10 11  1  0  0  0  0
  6 12  1  0  0  0  0
  8 13  1  0  0  0  0
M  END
> <NMREDATA_VERSION>
1.1

> <NMREDATA_LEVEL>
0

> <NMREDATA_SOLVENT>
nitromethane

> <NMREDATA_TEMPERATURE>
293

> <NMREDATA_FORMULA>
C6H12Cl3N3Rh

> <NMREDATA_SMILES>
CC#N[Rh](N#CC)(N#CC)(Cl)(Cl)Cl

> <NMREDATA_ASSIGNMENT>
Rh1, 5712.00, 1

> <NMREDATA_1D_103Rh>
5712.00, L=Rh1

$$$$

  ACD/LABS04022410282D

 13 12  0  0  0  0  0  0  0  0  1 V2000
   16.5529  -18.3316    0.0000 Rh   0  0  0  0  0  0  0  0  0  0  0  0
   14.6621  -17.2259    0.0000 Cl   0  0  0  0  0  0  0  0  0  0  0  0
   14.3255  -18.6040    0.0000 Cl   0  0  0  0  0  0  0  0  0  0  0  0
   16.0241  -20.1263    0.0000 Cl   0  0  0  0  0  0  0  0  0  0  0  0
   18.5890  -17.5241    0.0000 N    0  0  0  0  0  0  0  0  0  0  0  0
   20.6251  -16.7166    0.0000 C    0  0  0  0  0  0  0  0  0  0  0  0
   18.1706  -19.8083    0.0000 N    0  0  0  0  0  0  0  0  0  0  0  0
   19.7883  -21.2851    0.0000 C    0  0  0  0  0  0  0  0  0  0  0  0
   16.7187  -16.1475    0.0000 N    0  0  0  0  0  0  0  0  0  0  0  0
   16.8846  -13.9634    0.0000 C    0  0  0  0  0  0  0  0  0  0  0  0
   16.9535  -12.5308    0.0000 C    0  0  0  0  0  0  0  0  0  0  0  0
   22.2735  -16.1202    0.0000 C    0  0  0  0  0  0  0  0  0  0  0  0
   20.9916  -22.3696    0.0000 C    0  0  0  0  0  0  0  0  0  0  0  0
  1  2  1  0  0  0  0
  1  3  1  0  0  0  0
  1  4  1  0  0  0  0
  5  6  3  0  0  0  0
  1  5  1  0  0  0  0
  7  8  3  0  0  0  0
  1  7  1  0  0  0  0
  9 10  3  0  0  0  0
  1  9  1  0  0  0  0
 10 11  1  0  0  0  0
  6 12  1  0  0  0  0
  8 13  1  0  0  0  0
M  END
> <NMREDATA_VERSION>
1.1

> <NMREDATA_LEVEL>
0

> <NMREDATA_SOLVENT>
nitromethane

> <NMREDATA_TEMPERATURE>
293

> <NMREDATA_FORMULA>
C6H12Cl3N3Rh

> <NMREDATA_SMILES>
CC#N[Rh](N#CC)(N#CC)(Cl)(Cl)Cl

> <NMREDATA_ASSIGNMENT>
Rh1, 5930.00, 1

> <NMREDATA_1D_103Rh>
5930.00, L=Rh1

$$$$

  ACD/LABS04022410302D

 11 10  0  0  0  0  0  0  0  0  2 V2000
   14.5619  -17.3738    0.0000 Rh   0  7  0  0  0  0  0  0  0  0  0  0
   15.8806  -17.3701    0.0000 N    0  0  0  0  0  0  0  0  0  0  0  0
   16.5456  -18.5219    0.0000 O    0  5  0  0  0  0  0  0  0  0  0  0
   16.5508  -16.2255    0.0000 O    0  0  0  0  0  0  0  0  0  0  0  0
   13.2433  -17.3775    0.0000 N    0  0  0  0  0  0  0  0  0  0  0  0
   12.5783  -16.2257    0.0000 O    0  5  0  0  0  0  0  0  0  0  0  0
   12.5730  -18.5221    0.0000 O    0  0  0  0  0  0  0  0  0  0  0  0
   15.2200  -16.2260    0.0000 Cl   0  0  0  0  0  0  0  0  0  0  0  0
   13.9038  -18.5216    0.0000 Cl   0  0  0  0  0  0  0  0  0  0  0  0
   13.8969  -16.2220    0.0000 Cl   0  0  0  0  0  0  0  0  0  0  0  0
   15.2225  -18.5179    0.0000 Cl   0  0  0  0  0  0  0  0  0  0  0  0
  2  3  1  0  0  0  0
  2  4  2  0  0  0  0
  1  2  1  0  0  0  0
  5  6  1  0  0  0  0
  5  7  2  0  0  0  0
  1  5  1  0  0  0  0
  1  8  1  0  0  0  0
  1  9  1  0  0  0  0
  1 10  1  0  0  0  0
  1 11  1  0  0  0  0
M  END
> <NMREDATA_VERSION>
1.1

> <NMREDATA_LEVEL>
0

> <NMREDATA_SOLVENT>
H2O

> <NMREDATA_TEMPERATURE>
298

> <NMREDATA_FORMULA>
Cl4H4N2O4Rh

> <NMREDATA_SMILES>
ON(=O)[Rh](N(=O)O)(Cl)(Cl)(Cl)Cl

> <NMREDATA_ASSIGNMENT>
Rh1, 6740.00, 1

> <NMREDATA_1D_103Rh>
6740.00, L=Rh1

$$$$

  ACD/LABS04022410362D

 22 18  0  0  0  0  0  0  0  0  2 V2000
   13.1468  -18.8062    0.0000 N    0  0  0  0  0  0  0  0  0  0  0  0
   14.2986  -18.1412    0.0000 C    0  0  0  0  0  0  0  0  0  0  0  0
   15.4504  -17.4762    0.0000 S    0  0  0  0  0  0  0  0  0  0  0  0
   10.8432  -17.4762    0.0000 N    0  0  0  0  0  0  0  0  0  0  0  0
   10.8432  -16.1462    0.0000 C    0  0  0  0  0  0  0  0  0  0  0  0
   10.8432  -14.8162    0.0000 S    0  0  0  0  0  0  0  0  0  0  0  0
   10.8432  -18.8062    0.0000 N    0  0  0  0  0  0  0  0  0  0  0  0
   10.8432  -20.1362    0.0000 C    0  0  0  0  0  0  0  0  0  0  0  0
   10.8432  -21.4662    0.0000 S    0  0  0  0  0  0  0  0  0  0  0  0
   11.9950  -18.1412    0.0000 Rh   0  7  0  0  0  0  0  0  0  0  0  0
   13.1468  -17.4762    0.0000 S    0  0  0  0  0  0  0  0  0  0  0  0
   13.1468  -16.1462    0.0000 C    0  0  0  0  0  0  0  0  0  0  0  0
   13.1468  -14.8162    0.0000 N    0  0  0  0  0  0  0  0  0  0  0  0
   11.9950  -16.8112    0.0000 S    0  0  0  0  0  0  0  0  0  0  0  0
   10.8432  -16.1462    0.0000 C    0  0  0  0  0  0  0  0  0  0  0  0
    9.6914  -15.4812    0.0000 N    0  0  0  0  0  0  0  0  0  0  0  0
   11.9950  -19.4712    0.0000 N    0  0  0  0  0  0  0  0  0  0  0  0
   13.1468  -20.1362    0.0000 C    0  0  0  0  0  0  0  0  0  0  0  0
   14.2986  -20.8012    0.0000 S    0  0  0  0  0  0  0  0  0  0  0  0
   17.0657  -14.5178    0.0000 K    0  3  0  0  0  0  0  0  0  0  0  0
   18.0431  -14.6460    0.0000 K    0  3  0  0  0  0  0  0  0  0  0  0
   19.0847  -14.8063    0.0000 K    0  3  0  0  0  0  0  0  0  0  0  0
  1  2  2  0  0  0  0
  2  3  2  0  0  0  0
  4  5  2  0  0  0  0
  5  6  2  0  0  0  0
  7  8  2  0  0  0  0
  8  9  2  0  0  0  0
 11 12  1  0  0  0  0
 12 13  3  0  0  0  0
 10 11  1  0  0  0  0
 14 15  1  0  0  0  0
 15 16  3  0  0  0  0
 10 14  1  0  0  0  0
 17 18  2  0  0  0  0
 18 19  2  0  0  0  0
 10 17  1  0  0  0  0
  7 10  1  0  0  0  0
  4 10  1  0  0  0  0
  1 10  1  0  0  0  0
M  END
> <NMREDATA_VERSION>
1.1

> <NMREDATA_LEVEL>
0

> <NMREDATA_SOLVENT>
CD2Cl2

> <NMREDATA_TEMPERATURE>
243

> <NMREDATA_FORMULA>
C6H3K3N6RhS6

> <NMREDATA_SMILES>
N#CS[Rh](N=C=S)(N=C=S)(N=C=S)(N=C=S)SC#N.[KH].[KH].[KH]

> <NMREDATA_ASSIGNMENT>
Rh10, 5038.00, 10

> <NMREDATA_1D_103Rh>
5038.00, L=Rh10

$$$$

  ACD/LABS04022410372D

 22 18  0  0  0  0  0  0  0  0  2 V2000
   13.1468  -18.8062    0.0000 N    0  0  0  0  0  0  0  0  0  0  0  0
   14.2986  -18.1412    0.0000 C    0  0  0  0  0  0  0  0  0  0  0  0
   15.4504  -17.4762    0.0000 S    0  0  0  0  0  0  0  0  0  0  0  0
   10.8432  -17.4762    0.0000 N    0  0  0  0  0  0  0  0  0  0  0  0
   10.8432  -16.1462    0.0000 C    0  0  0  0  0  0  0  0  0  0  0  0
   10.8432  -14.8162    0.0000 S    0  0  0  0  0  0  0  0  0  0  0  0
   10.8432  -18.8062    0.0000 N    0  0  0  0  0  0  0  0  0  0  0  0
   10.8432  -20.1362    0.0000 C    0  0  0  0  0  0  0  0  0  0  0  0
   10.8432  -21.4662    0.0000 S    0  0  0  0  0  0  0  0  0  0  0  0
   11.9950  -18.1412    0.0000 Rh   0  7  0  0  0  0  0  0  0  0  0  0
   12.2546  -19.4289    0.0000 S    0  0  0  0  0  0  0  0  0  0  0  0
   13.3122  -20.2301    0.0000 C    0  0  0  0  0  0  0  0  0  0  0  0
   14.6903  -21.0633    0.0000 N    0  0  0  0  0  0  0  0  0  0  0  0
   11.9950  -16.8112    0.0000 S    0  0  0  0  0  0  0  0  0  0  0  0
   10.8432  -16.1462    0.0000 C    0  0  0  0  0  0  0  0  0  0  0  0
    9.6914  -15.4812    0.0000 N    0  0  0  0  0  0  0  0  0  0  0  0
   13.4622  -16.1241    0.0000 N    0  0  0  0  0  0  0  0  0  0  0  0
   14.4518  -15.9959    0.0000 C    0  0  0  0  0  0  0  0  0  0  0  0
   15.5056  -15.8356    0.0000 S    0  0  0  0  0  0  0  0  0  0  0  0
   17.0657  -14.5178    0.0000 K    0  3  0  0  0  0  0  0  0  0  0  0
   18.0431  -14.6460    0.0000 K    0  3  0  0  0  0  0  0  0  0  0  0
   19.0847  -14.8063    0.0000 K    0  3  0  0  0  0  0  0  0  0  0  0
  1  2  2  0  0  0  0
  2  3  2  0  0  0  0
  4  5  2  0  0  0  0
  5  6  2  0  0  0  0
  7  8  2  0  0  0  0
  8  9  2  0  0  0  0
 11 12  1  0  0  0  0
 12 13  3  0  0  0  0
 10 11  1  0  0  0  0
 14 15  1  0  0  0  0
 15 16  3  0  0  0  0
 10 14  1  0  0  0  0
 17 18  2  0  0  0  0
 18 19  2  0  0  0  0
 10 17  1  0  0  0  0
  7 10  1  0  0  0  0
  4 10  1  0  0  0  0
  1 10  1  0  0  0  0
M  END
> <NMREDATA_VERSION>
1.1

> <NMREDATA_LEVEL>
0

> <NMREDATA_SOLVENT>
CD2Cl2

> <NMREDATA_TEMPERATURE>
243

> <NMREDATA_FORMULA>
C6H3K3N6RhS6

> <NMREDATA_SMILES>
N#CS[Rh](N=C=S)(N=C=S)(N=C=S)(N=C=S)SC#N.[KH].[KH].[KH]

> <NMREDATA_ASSIGNMENT>
Rh10, 5042.00, 10

> <NMREDATA_1D_103Rh>
5042.00, L=Rh10

$$$$

  ACD/LABS04022410392D

 22 18  0  0  0  0  0  0  0  0  2 V2000
   17.0657  -14.5178    0.0000 K    0  3  0  0  0  0  0  0  0  0  0  0
   18.0431  -14.6460    0.0000 K    0  3  0  0  0  0  0  0  0  0  0  0
   19.0847  -14.8063    0.0000 K    0  3  0  0  0  0  0  0  0  0  0  0
   13.7166  -16.4407    0.0000 S    0  0  0  0  0  0  0  0  0  0  0  0
   15.0466  -16.4407    0.0000 C    0  0  0  0  0  0  0  0  0  0  0  0
   16.3766  -16.4407    0.0000 N    0  0  0  0  0  0  0  0  0  0  0  0
   11.7598  -20.6749    0.0000 N    0  0  0  0  0  0  0  0  0  0  0  0
   12.3007  -21.9248    0.0000 C    0  0  0  0  0  0  0  0  0  0  0  0
   12.8161  -22.6978    0.0000 S    0  0  0  0  0  0  0  0  0  0  0  0
   10.8432  -17.4762    0.0000 N    0  0  0  0  0  0  0  0  0  0  0  0
   10.0208  -16.1081    0.0000 C    0  0  0  0  0  0  0  0  0  0  0  0
    9.3959  -15.1626    0.0000 S    0  0  0  0  0  0  0  0  0  0  0  0
   10.8432  -18.8062    0.0000 N    0  0  0  0  0  0  0  0  0  0  0  0
   10.8432  -20.1362    0.0000 C    0  0  0  0  0  0  0  0  0  0  0  0
   10.8432  -21.4662    0.0000 S    0  0  0  0  0  0  0  0  0  0  0  0
   11.9950  -18.1412    0.0000 Rh   0  7  0  0  0  0  0  0  0  0  0  0
   13.7730  -18.0745    0.0000 S    0  0  0  0  0  0  0  0  0  0  0  0
   14.5262  -18.2347    0.0000 C    0  0  0  0  0  0  0  0  0  0  0  0
   16.2888  -18.5071    0.0000 N    0  0  0  0  0  0  0  0  0  0  0  0
   12.0860  -16.3522    0.0000 S    0  0  0  0  0  0  0  0  0  0  0  0
   12.2642  -15.3389    0.0000 C    0  0  0  0  0  0  0  0  0  0  0  0
   13.1494  -14.4576    0.0000 N    0  0  0  0  0  0  0  0  0  0  0  0
  4  5  1  0  0  0  0
  5  6  3  0  0  0  0
  7  8  2  0  0  0  0
  8  9  2  0  0  0  0
 10 11  2  0  0  0  0
 11 12  2  0  0  0  0
 13 14  2  0  0  0  0
 14 15  2  0  0  0  0
 17 18  1  0  0  0  0
 18 19  3  0  0  0  0
 16 17  1  0  0  0  0
 20 21  1  0  0  0  0
 21 22  3  0  0  0  0
 16 20  1  0  0  0  0
 13 16  1  0  0  0  0
 10 16  1  0  0  0  0
  7 16  1  0  0  0  0
  4 16  1  0  0  0  0
M  END
> <NMREDATA_VERSION>
1.1

> <NMREDATA_LEVEL>
0

> <NMREDATA_SOLVENT>
CD2Cl2

> <NMREDATA_TEMPERATURE>
243

> <NMREDATA_FORMULA>
C6H3K3N6RhS6

> <NMREDATA_SMILES>
N#CS[Rh](N=C=S)(N=C=S)(N=C=S)(SC#N)SC#N.[KH].[KH].[KH]

> <NMREDATA_ASSIGNMENT>
Rh16, 4526.00, 16

> <NMREDATA_1D_103Rh>
4526.00, L=Rh16

$$$$

  ACD/LABS04022410392D

 22 18  0  0  0  0  0  0  0  0  2 V2000
   17.0657  -14.5178    0.0000 K    0  3  0  0  0  0  0  0  0  0  0  0
   18.0431  -14.6460    0.0000 K    0  3  0  0  0  0  0  0  0  0  0  0
   19.0847  -14.8063    0.0000 K    0  3  0  0  0  0  0  0  0  0  0  0
   13.7166  -16.4407    0.0000 S    0  0  0  0  0  0  0  0  0  0  0  0
   15.0466  -16.4407    0.0000 C    0  0  0  0  0  0  0  0  0  0  0  0
   16.3766  -16.4407    0.0000 N    0  0  0  0  0  0  0  0  0  0  0  0
   14.1454  -18.7559    0.0000 N    0  0  0  0  0  0  0  0  0  0  0  0
   15.3396  -19.1244    0.0000 C    0  0  0  0  0  0  0  0  0  0  0  0
   16.5305  -19.7730    0.0000 S    0  0  0  0  0  0  0  0  0  0  0  0
   10.8432  -17.4762    0.0000 N    0  0  0  0  0  0  0  0  0  0  0  0
   10.0208  -16.1081    0.0000 C    0  0  0  0  0  0  0  0  0  0  0  0
    9.3959  -15.1626    0.0000 S    0  0  0  0  0  0  0  0  0  0  0  0
   10.8432  -18.8062    0.0000 N    0  0  0  0  0  0  0  0  0  0  0  0
   10.8432  -20.1362    0.0000 C    0  0  0  0  0  0  0  0  0  0  0  0
   10.8432  -21.4662    0.0000 S    0  0  0  0  0  0  0  0  0  0  0  0
   11.9950  -18.1412    0.0000 Rh   0  7  0  0  0  0  0  0  0  0  0  0
   12.8687  -20.2196    0.0000 S    0  0  0  0  0  0  0  0  0  0  0  0
   13.9256  -21.3106    0.0000 C    0  0  0  0  0  0  0  0  0  0  0  0
   15.0800  -22.2386    0.0000 N    0  0  0  0  0  0  0  0  0  0  0  0
   12.0860  -16.3522    0.0000 S    0  0  0  0  0  0  0  0  0  0  0  0
   12.2642  -15.3389    0.0000 C    0  0  0  0  0  0  0  0  0  0  0  0
   13.1494  -14.4576    0.0000 N    0  0  0  0  0  0  0  0  0  0  0  0
  4  5  1  0  0  0  0
  5  6  3  0  0  0  0
  7  8  2  0  0  0  0
  8  9  2  0  0  0  0
 10 11  2  0  0  0  0
 11 12  2  0  0  0  0
 13 14  2  0  0  0  0
 14 15  2  0  0  0  0
 17 18  1  0  0  0  0
 18 19  3  0  0  0  0
 16 17  1  0  0  0  0
 20 21  1  0  0  0  0
 21 22  3  0  0  0  0
 16 20  1  0  0  0  0
 13 16  1  0  0  0  0
 10 16  1  0  0  0  0
  7 16  1  0  0  0  0
  4 16  1  0  0  0  0
M  END
> <NMREDATA_VERSION>
1.1

> <NMREDATA_LEVEL>
0

> <NMREDATA_SOLVENT>
CD2Cl2

> <NMREDATA_TEMPERATURE>
243

> <NMREDATA_FORMULA>
C6H3K3N6RhS6

> <NMREDATA_SMILES>
N#CS[Rh](N=C=S)(N=C=S)(N=C=S)(SC#N)SC#N.[KH].[KH].[KH]

> <NMREDATA_ASSIGNMENT>
Rh16, 4496.00, 16

> <NMREDATA_1D_103Rh>
4496.00, L=Rh16

$$$$

  ACD/LABS04022410402D

 22 18  0  0  0  0  0  0  0  0  2 V2000
   17.0657  -14.5178    0.0000 K    0  3  0  0  0  0  0  0  0  0  0  0
   18.0431  -14.6460    0.0000 K    0  3  0  0  0  0  0  0  0  0  0  0
   19.0847  -14.8063    0.0000 K    0  3  0  0  0  0  0  0  0  0  0  0
   11.4412  -18.7963    0.0000 Rh   0  7  0  0  0  0  0  0  0  0  0  0
   12.7712  -18.7963    0.0000 S    0  0  0  0  0  0  0  0  0  0  0  0
   13.4362  -17.6444    0.0000 C    0  0  0  0  0  0  0  0  0  0  0  0
   14.1012  -16.4926    0.0000 N    0  0  0  0  0  0  0  0  0  0  0  0
   10.7762  -17.6445    0.0000 S    0  0  0  0  0  0  0  0  0  0  0  0
    9.4462  -17.6445    0.0000 C    0  0  0  0  0  0  0  0  0  0  0  0
    8.1162  -17.6445    0.0000 N    0  0  0  0  0  0  0  0  0  0  0  0
   10.7762  -19.9481    0.0000 S    0  0  0  0  0  0  0  0  0  0  0  0
   11.4412  -21.0999    0.0000 C    0  0  0  0  0  0  0  0  0  0  0  0
   12.1062  -22.2517    0.0000 N    0  0  0  0  0  0  0  0  0  0  0  0
   12.1062  -17.6445    0.0000 S    0  0  0  0  0  0  0  0  0  0  0  0
   11.4412  -16.4926    0.0000 C    0  0  0  0  0  0  0  0  0  0  0  0
   10.7762  -15.3408    0.0000 N    0  0  0  0  0  0  0  0  0  0  0  0
   12.1062  -19.9481    0.0000 N    0  0  0  0  0  0  0  0  0  0  0  0
   13.4362  -19.9481    0.0000 C    0  0  0  0  0  0  0  0  0  0  0  0
   14.7662  -19.9481    0.0000 S    0  0  0  0  0  0  0  0  0  0  0  0
   13.6365  -21.4883    0.0000 N    0  0  0  0  0  0  0  0  0  0  0  0
   14.9665  -21.4883    0.0000 C    0  0  0  0  0  0  0  0  0  0  0  0
   16.2965  -21.4883    0.0000 S    0  0  0  0  0  0  0  0  0  0  0  0
  5  6  1  0  0  0  0
  6  7  3  0  0  0  0
  4  5  1  0  0  0  0
  8  9  1  0  0  0  0
  9 10  3  0  0  0  0
  4  8  1  0  0  0  0
 11 12  1  0  0  0  0
 12 13  3  0  0  0  0
  4 11  1  0  0  0  0
 14 15  1  0  0  0  0
 15 16  3  0  0  0  0
  4 14  1  0  0  0  0
 17 18  2  0  0  0  0
 18 19  2  0  0  0  0
  4 17  1  0  0  0  0
 20 21  2  0  0  0  0
 21 22  2  0  0  0  0
  4 20  1  0  0  0  0
M  END
> <NMREDATA_VERSION>
1.1

> <NMREDATA_LEVEL>
0

> <NMREDATA_SOLVENT>
CD2Cl2

> <NMREDATA_TEMPERATURE>
243

> <NMREDATA_FORMULA>
C6H3K3N6RhS6

> <NMREDATA_SMILES>
N#CS[Rh](N=C=S)(N=C=S)(SC#N)(SC#N)SC#N.[KH].[KH].[KH]

> <NMREDATA_ASSIGNMENT>
Rh4, 3933.00, 4

> <NMREDATA_1D_103Rh>
3933.00, L=Rh4

$$$$

  ACD/LABS04022410412D

 22 18  0  0  0  0  0  0  0  0  2 V2000
   17.0657  -14.5178    0.0000 K    0  3  0  0  0  0  0  0  0  0  0  0
   18.0431  -14.6460    0.0000 K    0  3  0  0  0  0  0  0  0  0  0  0
   19.0847  -14.8063    0.0000 K    0  3  0  0  0  0  0  0  0  0  0  0
   11.4412  -18.7963    0.0000 Rh   0  7  0  0  0  0  0  0  0  0  0  0
   12.7712  -18.7963    0.0000 S    0  0  0  0  0  0  0  0  0  0  0  0
   13.4362  -17.6444    0.0000 C    0  0  0  0  0  0  0  0  0  0  0  0
   14.1012  -16.4926    0.0000 N    0  0  0  0  0  0  0  0  0  0  0  0
   10.2875  -18.7200    0.0000 S    0  0  0  0  0  0  0  0  0  0  0  0
    9.2139  -18.8162    0.0000 C    0  0  0  0  0  0  0  0  0  0  0  0
    7.7236  -18.9283    0.0000 N    0  0  0  0  0  0  0  0  0  0  0  0
   10.7762  -19.9481    0.0000 S    0  0  0  0  0  0  0  0  0  0  0  0
   11.4412  -21.0999    0.0000 C    0  0  0  0  0  0  0  0  0  0  0  0
   12.1062  -22.2517    0.0000 N    0  0  0  0  0  0  0  0  0  0  0  0
   12.1062  -17.6445    0.0000 S    0  0  0  0  0  0  0  0  0  0  0  0
   11.4412  -16.4926    0.0000 C    0  0  0  0  0  0  0  0  0  0  0  0
   10.7762  -15.3408    0.0000 N    0  0  0  0  0  0  0  0  0  0  0  0
   12.1062  -19.9481    0.0000 N    0  0  0  0  0  0  0  0  0  0  0  0
   13.4362  -19.9481    0.0000 C    0  0  0  0  0  0  0  0  0  0  0  0
   14.7662  -19.9481    0.0000 S    0  0  0  0  0  0  0  0  0  0  0  0
    9.5023  -15.4793    0.0000 N    0  0  0  0  0  0  0  0  0  0  0  0
    8.5248  -13.9890    0.0000 C    0  0  0  0  0  0  0  0  0  0  0  0
    8.0922  -13.3000    0.0000 S    0  0  0  0  0  0  0  0  0  0  0  0
  5  6  1  0  0  0  0
  6  7  3  0  0  0  0
  4  5  1  0  0  0  0
  8  9  1  0  0  0  0
  9 10  3  0  0  0  0
  4  8  1  0  0  0  0
 11 12  1  0  0  0  0
 12 13  3  0  0  0  0
  4 11  1  0  0  0  0
 14 15  1  0  0  0  0
 15 16  3  0  0  0  0
  4 14  1  0  0  0  0
 17 18  2  0  0  0  0
 18 19  2  0  0  0  0
  4 17  1  0  0  0  0
 20 21  2  0  0  0  0
 21 22  2  0  0  0  0
  4 20  1  0  0  0  0
M  END
> <NMREDATA_VERSION>
1.1

> <NMREDATA_LEVEL>
0

> <NMREDATA_SOLVENT>
CD2Cl2

> <NMREDATA_TEMPERATURE>
243

> <NMREDATA_FORMULA>
C6H3K3N6RhS6

> <NMREDATA_SMILES>
N#CS[Rh](N=C=S)(N=C=S)(SC#N)(SC#N)SC#N.[KH].[KH].[KH]

> <NMREDATA_ASSIGNMENT>
Rh4, 3954.00, 4

> <NMREDATA_1D_103Rh>
3954.00, L=Rh4

$$$$

  ACD/LABS04022410422D

 22 18  0  0  0  0  0  0  0  0  2 V2000
   17.0657  -14.5178    0.0000 K    0  3  0  0  0  0  0  0  0  0  0  0
   18.0431  -14.6460    0.0000 K    0  3  0  0  0  0  0  0  0  0  0  0
   19.0847  -14.8063    0.0000 K    0  3  0  0  0  0  0  0  0  0  0  0
   11.4412  -18.7963    0.0000 Rh   0  7  0  0  0  0  0  0  0  0  0  0
   12.7712  -18.7963    0.0000 S    0  0  0  0  0  0  0  0  0  0  0  0
   13.4362  -17.6444    0.0000 C    0  0  0  0  0  0  0  0  0  0  0  0
   14.1012  -16.4926    0.0000 N    0  0  0  0  0  0  0  0  0  0  0  0
   10.2875  -18.7200    0.0000 S    0  0  0  0  0  0  0  0  0  0  0  0
    9.2139  -18.8162    0.0000 C    0  0  0  0  0  0  0  0  0  0  0  0
    7.7236  -18.9283    0.0000 N    0  0  0  0  0  0  0  0  0  0  0  0
   10.7762  -19.9481    0.0000 S    0  0  0  0  0  0  0  0  0  0  0  0
   11.4412  -21.0999    0.0000 C    0  0  0  0  0  0  0  0  0  0  0  0
   12.1062  -22.2517    0.0000 N    0  0  0  0  0  0  0  0  0  0  0  0
   12.1062  -17.6445    0.0000 S    0  0  0  0  0  0  0  0  0  0  0  0
   11.4412  -16.4926    0.0000 C    0  0  0  0  0  0  0  0  0  0  0  0
   10.7762  -15.3408    0.0000 N    0  0  0  0  0  0  0  0  0  0  0  0
    9.5023  -15.4793    0.0000 N    0  0  0  0  0  0  0  0  0  0  0  0
    8.5248  -13.9890    0.0000 C    0  0  0  0  0  0  0  0  0  0  0  0
    8.0922  -13.3000    0.0000 S    0  0  0  0  0  0  0  0  0  0  0  0
   12.1062  -19.9481    0.0000 S    0  0  0  0  0  0  0  0  0  0  0  0
   13.4362  -19.9481    0.0000 C    0  0  0  0  0  0  0  0  0  0  0  0
   14.7662  -19.9481    0.0000 N    0  0  0  0  0  0  0  0  0  0  0  0
  5  6  1  0  0  0  0
  6  7  3  0  0  0  0
  4  5  1  0  0  0  0
  8  9  1  0  0  0  0
  9 10  3  0  0  0  0
  4  8  1  0  0  0  0
 11 12  1  0  0  0  0
 12 13  3  0  0  0  0
  4 11  1  0  0  0  0
 14 15  1  0  0  0  0
 15 16  3  0  0  0  0
  4 14  1  0  0  0  0
 17 18  2  0  0  0  0
 18 19  2  0  0  0  0
  4 17  1  0  0  0  0
 20 21  1  0  0  0  0
 21 22  3  0  0  0  0
  4 20  1  0  0  0  0
M  END
> <NMREDATA_VERSION>
1.1

> <NMREDATA_LEVEL>
0

> <NMREDATA_SOLVENT>
CD2Cl2

> <NMREDATA_TEMPERATURE>
243

> <NMREDATA_FORMULA>
C6H3K3N6RhS6

> <NMREDATA_SMILES>
N#CS[Rh](N=C=S)(SC#N)(SC#N)(SC#N)SC#N.[KH].[KH].[KH]

> <NMREDATA_ASSIGNMENT>
Rh4, 3374.00, 4

> <NMREDATA_1D_103Rh>
3374.00, L=Rh4

$$$$

  ACD/LABS04022410432D

 34 30  0  0  0  0  0  0  0  0  2 V2000
   14.5178  -17.4022    0.0000 Rh   0  0  0  0  0  0  0  0  0  0  0  0
   13.0052  -16.5289    0.0000 O    0  3  0  0  0  0  0  0  0  0  0  0
   14.5178  -15.6555    0.0000 O    0  3  0  0  0  0  0  0  0  0  0  0
   16.0305  -16.5289    0.0000 O    0  3  0  0  0  0  0  0  0  0  0  0
   14.5178  -19.1488    0.0000 O    0  0  0  0  0  0  0  0  0  0  0  0
   13.0052  -18.2755    0.0000 O    0  0  0  0  0  0  0  0  0  0  0  0
   16.0305  -18.2755    0.0000 O    0  0  0  0  0  0  0  0  0  0  0  0
   11.4926  -17.4022    0.0000 H    0  0  0  0  0  0  0  0  0  0  0  0
   13.0052  -14.7822    0.0000 H    0  0  0  0  0  0  0  0  0  0  0  0
   11.4926  -13.9089    0.0000 H    0  0  0  0  0  0  0  0  0  0  0  0
   16.0305  -14.7822    0.0000 H    0  0  0  0  0  0  0  0  0  0  0  0
   16.0305  -13.0356    0.0000 H    0  0  0  0  0  0  0  0  0  0  0  0
   17.5431  -17.4022    0.0000 H    0  0  0  0  0  0  0  0  0  0  0  0
   16.0305  -20.0221    0.0000 H    0  0  0  0  0  0  0  0  0  0  0  0
   13.0052  -20.0221    0.0000 H    0  0  0  0  0  0  0  0  0  0  0  0
   13.0052  -21.7687    0.0000 H    0  0  0  0  0  0  0  0  0  0  0  0
    9.9800  -16.5289    0.0000 H    0  0  0  0  0  0  0  0  0  0  0  0
   19.0557  -16.5289    0.0000 H    0  0  0  0  0  0  0  0  0  0  0  0
   16.0305  -21.7687    0.0000 H    0  0  0  0  0  0  0  0  0  0  0  0
   22.7622  -16.0001    0.0000 Cl   0  0  0  0  0  0  0  0  0  0  0  0
   21.1802  -15.0867    0.0000 O    0  0  0  0  0  0  0  0  0  0  0  0
   23.6756  -14.4181    0.0000 O    0  0  0  0  0  0  0  0  0  0  0  0
   21.8489  -17.5821    0.0000 O    0  5  0  0  0  0  0  0  0  0  0  0
   24.3442  -16.9134    0.0000 O    0  0  0  0  0  0  0  0  0  0  0  0
   26.3196  -13.8689    0.0000 Cl   0  0  0  0  0  0  0  0  0  0  0  0
   24.7376  -12.9555    0.0000 O    0  0  0  0  0  0  0  0  0  0  0  0
   27.2330  -12.2869    0.0000 O    0  0  0  0  0  0  0  0  0  0  0  0
   25.4062  -15.4509    0.0000 O    0  5  0  0  0  0  0  0  0  0  0  0
   27.9016  -14.7822    0.0000 O    0  0  0  0  0  0  0  0  0  0  0  0
   30.1333  -13.8689    0.0000 Cl   0  0  0  0  0  0  0  0  0  0  0  0
   28.5513  -12.9555    0.0000 O    0  0  0  0  0  0  0  0  0  0  0  0
   31.0467  -12.2869    0.0000 O    0  0  0  0  0  0  0  0  0  0  0  0
   29.2199  -15.4509    0.0000 O    0  5  0  0  0  0  0  0  0  0  0  0
   31.7153  -14.7822    0.0000 O    0  0  0  0  0  0  0  0  0  0  0  0
  1  2  1  0  0  0  0
  1  3  1  0  0  0  0
  1  4  1  0  0  0  0
  1  5  1  0  0  0  0
  1  6  1  0  0  0  0
  1  7  1  0  0  0  0
  2  8  1  0  0  0  0
  2  9  1  0  0  0  0
  3 10  1  0  0  0  0
  3 11  1  0  0  0  0
  4 12  1  0  0  0  0
  4 13  1  0  0  0  0
  5 14  1  0  0  0  0
  5 15  1  0  0  0  0
  6 16  1  0  0  0  0
  6 17  1  0  0  0  0
  7 18  1  0  0  0  0
  7 19  1  0  0  0  0
 20 21  2  0  0  0  0
 20 22  2  0  0  0  0
 20 23  1  0  0  0  0
 20 24  2  0  0  0  0
 25 26  2  0  0  0  0
 25 27  2  0  0  0  0
 25 28  1  0  0  0  0
 25 29  2  0  0  0  0
 30 31  2  0  0  0  0
 30 32  2  0  0  0  0
 30 33  1  0  0  0  0
 30 34  2  0  0  0  0
M  END
> <NMREDATA_VERSION>
1.1

> <NMREDATA_LEVEL>
0

> <NMREDATA_SOLVENT>
HClO4 (aq)

> <NMREDATA_FORMULA>
Cl3H15O18Rh

> <NMREDATA_SMILES>
[OH2][Rh]([OH2])([OH2])([OH2])([OH2])[OH2].O[Cl](=O)(=O)=O.O[Cl](=O)(=O)=O.O[Cl](=O)(=O)=O

> <NMREDATA_ASSIGNMENT>
Rh1, 9992.00, 1

> <NMREDATA_1D_103Rh>
9992.00, L=Rh1

$$$$

  ACD/LABS04022410432D

 34 30  0  0  0  0  0  0  0  0  2 V2000
   14.5178  -17.4022    0.0000 Rh   0  0  0  0  0  0  0  0  0  0  0  0
   13.0052  -16.5289    0.0000 O    0  3  0  0  0  0  0  0  0  0  0  0
   14.5178  -15.6555    0.0000 O    0  3  0  0  0  0  0  0  0  0  0  0
   16.0305  -16.5289    0.0000 O    0  3  0  0  0  0  0  0  0  0  0  0
   14.5178  -19.1488    0.0000 O    0  0  0  0  0  0  0  0  0  0  0  0
   13.0052  -18.2755    0.0000 O    0  0  0  0  0  0  0  0  0  0  0  0
   16.0305  -18.2755    0.0000 O    0  0  0  0  0  0  0  0  0  0  0  0
   11.4926  -17.4022    0.0000 H    0  0  0  0  0  0  0  0  0  0  0  0
   13.0052  -14.7822    0.0000 H    0  0  0  0  0  0  0  0  0  0  0  0
   11.4926  -13.9089    0.0000 H    0  0  0  0  0  0  0  0  0  0  0  0
   16.0305  -14.7822    0.0000 H    0  0  0  0  0  0  0  0  0  0  0  0
   16.0305  -13.0356    0.0000 H    0  0  0  0  0  0  0  0  0  0  0  0
   17.5431  -17.4022    0.0000 H    0  0  0  0  0  0  0  0  0  0  0  0
   16.0305  -20.0221    0.0000 H    0  0  0  0  0  0  0  0  0  0  0  0
   13.0052  -20.0221    0.0000 H    0  0  0  0  0  0  0  0  0  0  0  0
   13.0052  -21.7687    0.0000 H    0  0  0  0  0  0  0  0  0  0  0  0
    9.9800  -16.5289    0.0000 H    0  0  0  0  0  0  0  0  0  0  0  0
   19.0557  -16.5289    0.0000 H    0  0  0  0  0  0  0  0  0  0  0  0
   16.0305  -21.7687    0.0000 H    0  0  0  0  0  0  0  0  0  0  0  0
   22.7622  -16.0001    0.0000 Cl   0  0  0  0  0  0  0  0  0  0  0  0
   21.1802  -15.0867    0.0000 O    0  0  0  0  0  0  0  0  0  0  0  0
   23.6756  -14.4181    0.0000 O    0  0  0  0  0  0  0  0  0  0  0  0
   21.8489  -17.5821    0.0000 O    0  5  0  0  0  0  0  0  0  0  0  0
   24.3442  -16.9134    0.0000 O    0  0  0  0  0  0  0  0  0  0  0  0
   26.3196  -13.8689    0.0000 Cl   0  0  0  0  0  0  0  0  0  0  0  0
   24.7376  -12.9555    0.0000 O    0  0  0  0  0  0  0  0  0  0  0  0
   27.2330  -12.2869    0.0000 O    0  0  0  0  0  0  0  0  0  0  0  0
   25.4062  -15.4509    0.0000 O    0  5  0  0  0  0  0  0  0  0  0  0
   27.9016  -14.7822    0.0000 O    0  0  0  0  0  0  0  0  0  0  0  0
   30.1333  -13.8689    0.0000 Cl   0  0  0  0  0  0  0  0  0  0  0  0
   28.5513  -12.9555    0.0000 O    0  0  0  0  0  0  0  0  0  0  0  0
   31.0467  -12.2869    0.0000 O    0  0  0  0  0  0  0  0  0  0  0  0
   29.2199  -15.4509    0.0000 O    0  5  0  0  0  0  0  0  0  0  0  0
   31.7153  -14.7822    0.0000 O    0  0  0  0  0  0  0  0  0  0  0  0
  1  2  1  0  0  0  0
  1  3  1  0  0  0  0
  1  4  1  0  0  0  0
  1  5  1  0  0  0  0
  1  6  1  0  0  0  0
  1  7  1  0  0  0  0
  2  8  1  0  0  0  0
  2  9  1  0  0  0  0
  3 10  1  0  0  0  0
  3 11  1  0  0  0  0
  4 12  1  0  0  0  0
  4 13  1  0  0  0  0
  5 14  1  0  0  0  0
  5 15  1  0  0  0  0
  6 16  1  0  0  0  0
  6 17  1  0  0  0  0
  7 18  1  0  0  0  0
  7 19  1  0  0  0  0
 20 21  2  0  0  0  0
 20 22  2  0  0  0  0
 20 23  1  0  0  0  0
 20 24  2  0  0  0  0
 25 26  2  0  0  0  0
 25 27  2  0  0  0  0
 25 28  1  0  0  0  0
 25 29  2  0  0  0  0
 30 31  2  0  0  0  0
 30 32  2  0  0  0  0
 30 33  1  0  0  0  0
 30 34  2  0  0  0  0
M  END
> <NMREDATA_VERSION>
1.1

> <NMREDATA_LEVEL>
0

> <NMREDATA_SOLVENT>
HClO4 (aq)

> <NMREDATA_TEMPERATURE>
276

> <NMREDATA_FORMULA>
Cl3H15O18Rh

> <NMREDATA_SMILES>
[OH2][Rh]([OH2])([OH2])([OH2])([OH2])[OH2].O[Cl](=O)(=O)=O.O[Cl](=O)(=O)=O.O[Cl](=O)(=O)=O

> <NMREDATA_ASSIGNMENT>
Rh1, 9866.00, 1

> <NMREDATA_1D_103Rh>
9866.00, L=Rh1

$$$$

  ACD/LABS04022410432D

 34 30  0  0  0  0  0  0  0  0  2 V2000
   14.5178  -17.4022    0.0000 Rh   0  0  0  0  0  0  0  0  0  0  0  0
   13.0052  -16.5289    0.0000 O    0  3  0  0  0  0  0  0  0  0  0  0
   14.5178  -15.6555    0.0000 O    0  3  0  0  0  0  0  0  0  0  0  0
   16.0305  -16.5289    0.0000 O    0  3  0  0  0  0  0  0  0  0  0  0
   14.5178  -19.1488    0.0000 O    0  0  0  0  0  0  0  0  0  0  0  0
   13.0052  -18.2755    0.0000 O    0  0  0  0  0  0  0  0  0  0  0  0
   16.0305  -18.2755    0.0000 O    0  0  0  0  0  0  0  0  0  0  0  0
   11.4926  -17.4022    0.0000 H    0  0  0  0  0  0  0  0  0  0  0  0
   13.0052  -14.7822    0.0000 H    0  0  0  0  0  0  0  0  0  0  0  0
   11.4926  -13.9089    0.0000 H    0  0  0  0  0  0  0  0  0  0  0  0
   16.0305  -14.7822    0.0000 H    0  0  0  0  0  0  0  0  0  0  0  0
   16.0305  -13.0356    0.0000 H    0  0  0  0  0  0  0  0  0  0  0  0
   17.5431  -17.4022    0.0000 H    0  0  0  0  0  0  0  0  0  0  0  0
   16.0305  -20.0221    0.0000 H    0  0  0  0  0  0  0  0  0  0  0  0
   13.0052  -20.0221    0.0000 H    0  0  0  0  0  0  0  0  0  0  0  0
   13.0052  -21.7687    0.0000 H    0  0  0  0  0  0  0  0  0  0  0  0
    9.9800  -16.5289    0.0000 H    0  0  0  0  0  0  0  0  0  0  0  0
   19.0557  -16.5289    0.0000 H    0  0  0  0  0  0  0  0  0  0  0  0
   16.0305  -21.7687    0.0000 H    0  0  0  0  0  0  0  0  0  0  0  0
   22.7622  -16.0001    0.0000 Cl   0  0  0  0  0  0  0  0  0  0  0  0
   21.1802  -15.0867    0.0000 O    0  0  0  0  0  0  0  0  0  0  0  0
   23.6756  -14.4181    0.0000 O    0  0  0  0  0  0  0  0  0  0  0  0
   21.8489  -17.5821    0.0000 O    0  5  0  0  0  0  0  0  0  0  0  0
   24.3442  -16.9134    0.0000 O    0  0  0  0  0  0  0  0  0  0  0  0
   26.3196  -13.8689    0.0000 Cl   0  0  0  0  0  0  0  0  0  0  0  0
   24.7376  -12.9555    0.0000 O    0  0  0  0  0  0  0  0  0  0  0  0
   27.2330  -12.2869    0.0000 O    0  0  0  0  0  0  0  0  0  0  0  0
   25.4062  -15.4509    0.0000 O    0  5  0  0  0  0  0  0  0  0  0  0
   27.9016  -14.7822    0.0000 O    0  0  0  0  0  0  0  0  0  0  0  0
   30.1333  -13.8689    0.0000 Cl   0  0  0  0  0  0  0  0  0  0  0  0
   28.5513  -12.9555    0.0000 O    0  0  0  0  0  0  0  0  0  0  0  0
   31.0467  -12.2869    0.0000 O    0  0  0  0  0  0  0  0  0  0  0  0
   29.2199  -15.4509    0.0000 O    0  5  0  0  0  0  0  0  0  0  0  0
   31.7153  -14.7822    0.0000 O    0  0  0  0  0  0  0  0  0  0  0  0
  1  2  1  0  0  0  0
  1  3  1  0  0  0  0
  1  4  1  0  0  0  0
  1  5  1  0  0  0  0
  1  6  1  0  0  0  0
  1  7  1  0  0  0  0
  2  8  1  0  0  0  0
  2  9  1  0  0  0  0
  3 10  1  0  0  0  0
  3 11  1  0  0  0  0
  4 12  1  0  0  0  0
  4 13  1  0  0  0  0
  5 14  1  0  0  0  0
  5 15  1  0  0  0  0
  6 16  1  0  0  0  0
  6 17  1  0  0  0  0
  7 18  1  0  0  0  0
  7 19  1  0  0  0  0
 20 21  2  0  0  0  0
 20 22  2  0  0  0  0
 20 23  1  0  0  0  0
 20 24  2  0  0  0  0
 25 26  2  0  0  0  0
 25 27  2  0  0  0  0
 25 28  1  0  0  0  0
 25 29  2  0  0  0  0
 30 31  2  0  0  0  0
 30 32  2  0  0  0  0
 30 33  1  0  0  0  0
 30 34  2  0  0  0  0
M  END
> <NMREDATA_VERSION>
1.1

> <NMREDATA_LEVEL>
0

> <NMREDATA_SOLVENT>
HClO4 (aq)

> <NMREDATA_TEMPERATURE>
308

> <NMREDATA_FORMULA>
Cl3H15O18Rh

> <NMREDATA_SMILES>
[OH2][Rh]([OH2])([OH2])([OH2])([OH2])[OH2].O[Cl](=O)(=O)=O.O[Cl](=O)(=O)=O.O[Cl](=O)(=O)=O

> <NMREDATA_ASSIGNMENT>
Rh1, 9931.00, 1

> <NMREDATA_1D_103Rh>
9931.00, L=Rh1

$$$$

  ACD/LABS04022410432D

 34 30  0  0  0  0  0  0  0  0  2 V2000
   14.5178  -17.4022    0.0000 Rh   0  0  0  0  0  0  0  0  0  0  0  0
   13.0052  -16.5289    0.0000 O    0  3  0  0  0  0  0  0  0  0  0  0
   14.5178  -15.6555    0.0000 O    0  3  0  0  0  0  0  0  0  0  0  0
   16.0305  -16.5289    0.0000 O    0  3  0  0  0  0  0  0  0  0  0  0
   14.5178  -19.1488    0.0000 O    0  0  0  0  0  0  0  0  0  0  0  0
   13.0052  -18.2755    0.0000 O    0  0  0  0  0  0  0  0  0  0  0  0
   16.0305  -18.2755    0.0000 O    0  0  0  0  0  0  0  0  0  0  0  0
   11.4926  -17.4022    0.0000 H    0  0  0  0  0  0  0  0  0  0  0  0
   13.0052  -14.7822    0.0000 H    0  0  0  0  0  0  0  0  0  0  0  0
   11.4926  -13.9089    0.0000 H    0  0  0  0  0  0  0  0  0  0  0  0
   16.0305  -14.7822    0.0000 H    0  0  0  0  0  0  0  0  0  0  0  0
   16.0305  -13.0356    0.0000 H    0  0  0  0  0  0  0  0  0  0  0  0
   17.5431  -17.4022    0.0000 H    0  0  0  0  0  0  0  0  0  0  0  0
   16.0305  -20.0221    0.0000 H    0  0  0  0  0  0  0  0  0  0  0  0
   13.0052  -20.0221    0.0000 H    0  0  0  0  0  0  0  0  0  0  0  0
   13.0052  -21.7687    0.0000 H    0  0  0  0  0  0  0  0  0  0  0  0
    9.9800  -16.5289    0.0000 H    0  0  0  0  0  0  0  0  0  0  0  0
   19.0557  -16.5289    0.0000 H    0  0  0  0  0  0  0  0  0  0  0  0
   16.0305  -21.7687    0.0000 H    0  0  0  0  0  0  0  0  0  0  0  0
   22.7622  -16.0001    0.0000 Cl   0  0  0  0  0  0  0  0  0  0  0  0
   21.1802  -15.0867    0.0000 O    0  0  0  0  0  0  0  0  0  0  0  0
   23.6756  -14.4181    0.0000 O    0  0  0  0  0  0  0  0  0  0  0  0
   21.8489  -17.5821    0.0000 O    0  5  0  0  0  0  0  0  0  0  0  0
   24.3442  -16.9134    0.0000 O    0  0  0  0  0  0  0  0  0  0  0  0
   26.3196  -13.8689    0.0000 Cl   0  0  0  0  0  0  0  0  0  0  0  0
   24.7376  -12.9555    0.0000 O    0  0  0  0  0  0  0  0  0  0  0  0
   27.2330  -12.2869    0.0000 O    0  0  0  0  0  0  0  0  0  0  0  0
   25.4062  -15.4509    0.0000 O    0  5  0  0  0  0  0  0  0  0  0  0
   27.9016  -14.7822    0.0000 O    0  0  0  0  0  0  0  0  0  0  0  0
   30.1333  -13.8689    0.0000 Cl   0  0  0  0  0  0  0  0  0  0  0  0
   28.5513  -12.9555    0.0000 O    0  0  0  0  0  0  0  0  0  0  0  0
   31.0467  -12.2869    0.0000 O    0  0  0  0  0  0  0  0  0  0  0  0
   29.2199  -15.4509    0.0000 O    0  5  0  0  0  0  0  0  0  0  0  0
   31.7153  -14.7822    0.0000 O    0  0  0  0  0  0  0  0  0  0  0  0
  1  2  1  0  0  0  0
  1  3  1  0  0  0  0
  1  4  1  0  0  0  0
  1  5  1  0  0  0  0
  1  6  1  0  0  0  0
  1  7  1  0  0  0  0
  2  8  1  0  0  0  0
  2  9  1  0  0  0  0
  3 10  1  0  0  0  0
  3 11  1  0  0  0  0
  4 12  1  0  0  0  0
  4 13  1  0  0  0  0
  5 14  1  0  0  0  0
  5 15  1  0  0  0  0
  6 16  1  0  0  0  0
  6 17  1  0  0  0  0
  7 18  1  0  0  0  0
  7 19  1  0  0  0  0
 20 21  2  0  0  0  0
 20 22  2  0  0  0  0
 20 23  1  0  0  0  0
 20 24  2  0  0  0  0
 25 26  2  0  0  0  0
 25 27  2  0  0  0  0
 25 28  1  0  0  0  0
 25 29  2  0  0  0  0
 30 31  2  0  0  0  0
 30 32  2  0  0  0  0
 30 33  1  0  0  0  0
 30 34  2  0  0  0  0
M  END
> <NMREDATA_VERSION>
1.1

> <NMREDATA_LEVEL>
0

> <NMREDATA_SOLVENT>
HClO4 (aq)

> <NMREDATA_TEMPERATURE>
276

> <NMREDATA_FORMULA>
Cl3H15O18Rh

> <NMREDATA_SMILES>
[OH2][Rh]([OH2])([OH2])([OH2])([OH2])[OH2].O[Cl](=O)(=O)=O.O[Cl](=O)(=O)=O.O[Cl](=O)(=O)=O

> <NMREDATA_ASSIGNMENT>
Rh1, 9880.00, 1

> <NMREDATA_1D_103Rh>
9880.00, L=Rh1

$$$$

  ACD/LABS04022410442D

 34 30  0  0  0  0  0  0  0  0  2 V2000
   14.5178  -17.4022    0.0000 Rh   0  0  0  0  0  0  0  0  0  0  0  0
   13.0052  -16.5289    0.0000 O    0  3  0  0  0  0  0  0  0  0  0  0
   14.5178  -15.6555    0.0000 O    0  3  0  0  0  0  0  0  0  0  0  0
   16.0305  -16.5289    0.0000 O    0  3  0  0  0  0  0  0  0  0  0  0
   14.5178  -19.1488    0.0000 O    0  0  0  0  0  0  0  0  0  0  0  0
   13.0052  -18.2755    0.0000 O    0  0  0  0  0  0  0  0  0  0  0  0
   16.0305  -18.2755    0.0000 O    0  0  0  0  0  0  0  0  0  0  0  0
   11.4926  -17.4022    0.0000 H    0  0  0  0  0  0  0  0  0  0  0  0
   13.0052  -14.7822    0.0000 H    0  0  0  0  0  0  0  0  0  0  0  0
   11.4926  -13.9089    0.0000 H    0  0  0  0  0  0  0  0  0  0  0  0
   16.0305  -14.7822    0.0000 H    0  0  0  0  0  0  0  0  0  0  0  0
   16.0305  -13.0356    0.0000 H    0  0  0  0  0  0  0  0  0  0  0  0
   17.5431  -17.4022    0.0000 H    0  0  0  0  0  0  0  0  0  0  0  0
   16.0305  -20.0221    0.0000 H    0  0  0  0  0  0  0  0  0  0  0  0
   13.0052  -20.0221    0.0000 H    0  0  0  0  0  0  0  0  0  0  0  0
   13.0052  -21.7687    0.0000 H    0  0  0  0  0  0  0  0  0  0  0  0
    9.9800  -16.5289    0.0000 H    0  0  0  0  0  0  0  0  0  0  0  0
   19.0557  -16.5289    0.0000 H    0  0  0  0  0  0  0  0  0  0  0  0
   16.0305  -21.7687    0.0000 H    0  0  0  0  0  0  0  0  0  0  0  0
   22.7622  -16.0001    0.0000 Cl   0  0  0  0  0  0  0  0  0  0  0  0
   21.1802  -15.0867    0.0000 O    0  0  0  0  0  0  0  0  0  0  0  0
   23.6756  -14.4181    0.0000 O    0  0  0  0  0  0  0  0  0  0  0  0
   21.8489  -17.5821    0.0000 O    0  5  0  0  0  0  0  0  0  0  0  0
   24.3442  -16.9134    0.0000 O    0  0  0  0  0  0  0  0  0  0  0  0
   26.3196  -13.8689    0.0000 Cl   0  0  0  0  0  0  0  0  0  0  0  0
   24.7376  -12.9555    0.0000 O    0  0  0  0  0  0  0  0  0  0  0  0
   27.2330  -12.2869    0.0000 O    0  0  0  0  0  0  0  0  0  0  0  0
   25.4062  -15.4509    0.0000 O    0  5  0  0  0  0  0  0  0  0  0  0
   27.9016  -14.7822    0.0000 O    0  0  0  0  0  0  0  0  0  0  0  0
   30.1333  -13.8689    0.0000 Cl   0  0  0  0  0  0  0  0  0  0  0  0
   28.5513  -12.9555    0.0000 O    0  0  0  0  0  0  0  0  0  0  0  0
   31.0467  -12.2869    0.0000 O    0  0  0  0  0  0  0  0  0  0  0  0
   29.2199  -15.4509    0.0000 O    0  5  0  0  0  0  0  0  0  0  0  0
   31.7153  -14.7822    0.0000 O    0  0  0  0  0  0  0  0  0  0  0  0
  1  2  1  0  0  0  0
  1  3  1  0  0  0  0
  1  4  1  0  0  0  0
  1  5  1  0  0  0  0
  1  6  1  0  0  0  0
  1  7  1  0  0  0  0
  2  8  1  0  0  0  0
  2  9  1  0  0  0  0
  3 10  1  0  0  0  0
  3 11  1  0  0  0  0
  4 12  1  0  0  0  0
  4 13  1  0  0  0  0
  5 14  1  0  0  0  0
  5 15  1  0  0  0  0
  6 16  1  0  0  0  0
  6 17  1  0  0  0  0
  7 18  1  0  0  0  0
  7 19  1  0  0  0  0
 20 21  2  0  0  0  0
 20 22  2  0  0  0  0
 20 23  1  0  0  0  0
 20 24  2  0  0  0  0
 25 26  2  0  0  0  0
 25 27  2  0  0  0  0
 25 28  1  0  0  0  0
 25 29  2  0  0  0  0
 30 31  2  0  0  0  0
 30 32  2  0  0  0  0
 30 33  1  0  0  0  0
 30 34  2  0  0  0  0
M  END
> <NMREDATA_VERSION>
1.1

> <NMREDATA_LEVEL>
0

> <NMREDATA_SOLVENT>
HClO4 (aq)

> <NMREDATA_TEMPERATURE>
298

> <NMREDATA_FORMULA>
Cl3H15O18Rh

> <NMREDATA_SMILES>
[OH2][Rh]([OH2])([OH2])([OH2])([OH2])[OH2].O[Cl](=O)(=O)=O.O[Cl](=O)(=O)=O.O[Cl](=O)(=O)=O

> <NMREDATA_ASSIGNMENT>
Rh1, 9916.00, 1

> <NMREDATA_1D_103Rh>
9916.00, L=Rh1

$$$$

  ACD/LABS04032410202D

 19 16  0  0  0  0  0  0  0  0  2 V2000
   12.1783  -16.4230    0.0000 Rh   0  7  0  0  0  0  0  0  0  0  0  0
   12.1735  -14.7149    0.0000 O    0  3  0  0  0  0  0  0  0  0  0  0
   12.7639  -18.0345    0.0000 O    0  3  0  0  0  0  0  0  0  0  0  0
   11.0755  -15.1101    0.0000 O    0  3  0  0  0  0  0  0  0  0  0  0
   13.6651  -17.2754    0.0000 O    0  3  0  0  0  0  0  0  0  0  0  0
   10.6864  -17.2844    0.0000 O    0  3  0  0  0  0  0  0  0  0  0  0
    9.1996  -16.4319    0.0000 H    0  0  0  0  0  0  0  0  0  0  0  0
   10.6912  -18.9924    0.0000 H    0  0  0  0  0  0  0  0  0  0  0  0
   10.6909  -13.8467    0.0000 H    0  0  0  0  0  0  0  0  0  0  0  0
   13.6655  -13.8535    0.0000 H    0  0  0  0  0  0  0  0  0  0  0  0
   11.8957  -19.5170    0.0000 H    0  0  0  0  0  0  0  0  0  0  0  0
   14.4735  -18.0554    0.0000 H    0  0  0  0  0  0  0  0  0  0  0  0
    9.3575  -15.1207    0.0000 H    0  0  0  0  0  0  0  0  0  0  0  0
   11.9122  -13.6191    0.0000 H    0  0  0  0  0  0  0  0  0  0  0  0
   13.6657  -18.9992    0.0000 H    0  0  0  0  0  0  0  0  0  0  0  0
   15.1571  -16.4140    0.0000 H    0  0  0  0  0  0  0  0  0  0  0  0
   13.6603  -15.5674    0.0000 F    0  0  0  0  0  0  0  0  0  0  0  0
   18.8924  -12.7872    0.0000 F    0  5  0  0  0  0  0  0  0  0  0  0
   20.0141  -13.7487    0.0000 F    0  5  0  0  0  0  0  0  0  0  0  0
  1  2  1  0  0  0  0
  1  3  1  0  0  0  0
  1  4  1  0  0  0  0
  1  5  1  0  0  0  0
  1  6  1  0  0  0  0
  6  7  1  0  0  0  0
  6  8  1  0  0  0  0
  2  9  1  0  0  0  0
  2 10  1  0  0  0  0
  3 11  1  0  0  0  0
  3 12  1  0  0  0  0
  4 13  1  0  0  0  0
  4 14  1  0  0  0  0
  5 15  1  0  0  0  0
  5 16  1  0  0  0  0
  1 17  1  0  0  0  0
M  END
> <NMREDATA_VERSION>
1.1

> <NMREDATA_LEVEL>
0

> <NMREDATA_SOLVENT>
HF (aq)

> <NMREDATA_TEMPERATURE>
298

> <NMREDATA_FORMULA>
F3H12O5Rh

> <NMREDATA_SMILES>
[OH2][Rh](F)([OH2])([OH2])([OH2])[OH2].F.F

> <NMREDATA_ASSIGNMENT>
Rh1, 10524.00, 1

> <NMREDATA_1D_103Rh>
10524.00, L=Rh1

$$$$

  ACD/LABS04032410202D

 10  6  0  0  0  0  0  0  0  0  2 V2000
   13.4522  -16.9375    0.0000 Rh   0  7  0  0  0  0  0  0  0  0  0  0
   12.7231  -15.6746    0.0000 Cl   0  0  0  0  0  0  0  0  0  0  0  0
   14.1813  -15.6746    0.0000 Cl   0  0  0  0  0  0  0  0  0  0  0  0
   14.9104  -16.9375    0.0000 Cl   0  0  0  0  0  0  0  0  0  0  0  0
   12.7231  -18.2003    0.0000 Cl   0  0  0  0  0  0  0  0  0  0  0  0
   11.9940  -16.9375    0.0000 Cl   0  0  0  0  0  0  0  0  0  0  0  0
   14.1813  -18.2003    0.0000 Cl   0  0  0  0  0  0  0  0  0  0  0  0
   19.3090  -13.9410    0.0000 H    0  3  0  0  0  0  0  0  0  0  0  0
   19.6295  -15.1908    0.0000 H    0  3  0  0  0  0  0  0  0  0  0  0
   21.7928  -14.7582    0.0000 H    0  3  0  0  0  0  0  0  0  0  0  0
  1  2  1  0  0  0  0
  1  3  1  0  0  0  0
  1  4  1  0  0  0  0
  1  5  1  0  0  0  0
  1  6  1  0  0  0  0
  1  7  1  0  0  0  0
M  END
> <NMREDATA_VERSION>
1.1

> <NMREDATA_LEVEL>
0

> <NMREDATA_SOLVENT>
HCl (aq)

> <NMREDATA_TEMPERATURE>
313

> <NMREDATA_FORMULA>
Cl6Rh

> <NMREDATA_SMILES>
Cl[Rh](Cl)(Cl)(Cl)(Cl)Cl.[HH].[HH].[HH]

> <NMREDATA_ASSIGNMENT>
Rh1, 7985.00, 1

> <NMREDATA_1D_103Rh>
7985.00, L=Rh1

$$$$

  ACD/LABS04032410202D

 10  6  0  0  0  0  0  0  0  0  2 V2000
   13.4522  -16.9375    0.0000 Rh   0  7  0  0  0  0  0  0  0  0  0  0
   12.7231  -15.6746    0.0000 Cl   0  0  0  0  0  0  0  0  0  0  0  0
   14.1813  -15.6746    0.0000 Cl   0  0  0  0  0  0  0  0  0  0  0  0
   14.9104  -16.9375    0.0000 Cl   0  0  0  0  0  0  0  0  0  0  0  0
   12.7231  -18.2003    0.0000 Cl   0  0  0  0  0  0  0  0  0  0  0  0
   11.9940  -16.9375    0.0000 Cl   0  0  0  0  0  0  0  0  0  0  0  0
   14.1813  -18.2003    0.0000 Cl   0  0  0  0  0  0  0  0  0  0  0  0
   19.3090  -13.9410    0.0000 H    0  3  0  0  0  0  0  0  0  0  0  0
   19.6295  -15.1908    0.0000 H    0  3  0  0  0  0  0  0  0  0  0  0
   21.7928  -14.7582    0.0000 H    0  3  0  0  0  0  0  0  0  0  0  0
  1  2  1  0  0  0  0
  1  3  1  0  0  0  0
  1  4  1  0  0  0  0
  1  5  1  0  0  0  0
  1  6  1  0  0  0  0
  1  7  1  0  0  0  0
M  END
> <NMREDATA_VERSION>
1.1

> <NMREDATA_LEVEL>
0

> <NMREDATA_SOLVENT>
HClO4 (aq)

> <NMREDATA_TEMPERATURE>
276

> <NMREDATA_FORMULA>
Cl6Rh

> <NMREDATA_SMILES>
Cl[Rh](Cl)(Cl)(Cl)(Cl)Cl.[HH].[HH].[HH]

> <NMREDATA_ASSIGNMENT>
Rh1, 8001.00, 1

> <NMREDATA_1D_103Rh>
8001.00, L=Rh1

$$$$

  ACD/LABS04032410212D

 10  6  0  0  0  0  0  0  0  0  2 V2000
   13.4522  -16.9375    0.0000 Rh   0  7  0  0  0  0  0  0  0  0  0  0
   12.7231  -15.6746    0.0000 Cl   0  0  0  0  0  0  0  0  0  0  0  0
   14.1813  -15.6746    0.0000 Cl   0  0  0  0  0  0  0  0  0  0  0  0
   14.9104  -16.9375    0.0000 Cl   0  0  0  0  0  0  0  0  0  0  0  0
   12.7231  -18.2003    0.0000 Cl   0  0  0  0  0  0  0  0  0  0  0  0
   11.9940  -16.9375    0.0000 Cl   0  0  0  0  0  0  0  0  0  0  0  0
   14.1813  -18.2003    0.0000 Cl   0  0  0  0  0  0  0  0  0  0  0  0
   19.3090  -13.9410    0.0000 H    0  3  0  0  0  0  0  0  0  0  0  0
   19.6295  -15.1908    0.0000 H    0  3  0  0  0  0  0  0  0  0  0  0
   21.7928  -14.7582    0.0000 H    0  3  0  0  0  0  0  0  0  0  0  0
  1  2  1  0  0  0  0
  1  3  1  0  0  0  0
  1  4  1  0  0  0  0
  1  5  1  0  0  0  0
  1  6  1  0  0  0  0
  1  7  1  0  0  0  0
M  END
> <NMREDATA_VERSION>
1.1

> <NMREDATA_LEVEL>
0

> <NMREDATA_SOLVENT>
HCl (aq)

> <NMREDATA_TEMPERATURE>
308

> <NMREDATA_FORMULA>
Cl6Rh

> <NMREDATA_SMILES>
Cl[Rh](Cl)(Cl)(Cl)(Cl)Cl.[HH].[HH].[HH]

> <NMREDATA_ASSIGNMENT>
Rh1, 8075.00, 1

> <NMREDATA_1D_103Rh>
8075.00, L=Rh1

$$$$

  ACD/LABS04032410212D

 10  6  0  0  0  0  0  0  0  0  2 V2000
   13.4522  -16.9375    0.0000 Rh   0  7  0  0  0  0  0  0  0  0  0  0
   12.7231  -15.6746    0.0000 Cl   0  0  0  0  0  0  0  0  0  0  0  0
   14.1813  -15.6746    0.0000 Cl   0  0  0  0  0  0  0  0  0  0  0  0
   14.9104  -16.9375    0.0000 Cl   0  0  0  0  0  0  0  0  0  0  0  0
   12.7231  -18.2003    0.0000 Cl   0  0  0  0  0  0  0  0  0  0  0  0
   11.9940  -16.9375    0.0000 Cl   0  0  0  0  0  0  0  0  0  0  0  0
   14.1813  -18.2003    0.0000 Cl   0  0  0  0  0  0  0  0  0  0  0  0
   19.3090  -13.9410    0.0000 H    0  3  0  0  0  0  0  0  0  0  0  0
   19.6295  -15.1908    0.0000 H    0  3  0  0  0  0  0  0  0  0  0  0
   21.7928  -14.7582    0.0000 H    0  3  0  0  0  0  0  0  0  0  0  0
  1  2  1  0  0  0  0
  1  3  1  0  0  0  0
  1  4  1  0  0  0  0
  1  5  1  0  0  0  0
  1  6  1  0  0  0  0
  1  7  1  0  0  0  0
M  END
> <NMREDATA_VERSION>
1.1

> <NMREDATA_LEVEL>
0

> <NMREDATA_SOLVENT>
HCl (aq)

> <NMREDATA_TEMPERATURE>
243

> <NMREDATA_FORMULA>
Cl6Rh

> <NMREDATA_SMILES>
Cl[Rh](Cl)(Cl)(Cl)(Cl)Cl.[HH].[HH].[HH]

> <NMREDATA_ASSIGNMENT>
Rh1, 7836.00, 1

> <NMREDATA_1D_103Rh>
7836.00, L=Rh1

$$$$

  ACD/LABS04032410252D

 46 43  0  0  0  0  0  0  0  0  2 V2000
   22.7302  -15.9280    0.0000 N    0  3  0  0  0  0  0  0  0  0  0  0
   23.5906  -15.4312    0.0000 C    0  0  0  0  0  0  0  0  0  0  0  0
   23.5906  -14.4377    0.0000 C    0  0  0  0  0  0  0  0  0  0  0  0
   24.4510  -13.9410    0.0000 C    0  0  0  0  0  0  0  0  0  0  0  0
   24.4510  -12.9475    0.0000 C    0  0  0  0  0  0  0  0  0  0  0  0
   23.2269  -16.7883    0.0000 C    0  0  0  0  0  0  0  0  0  0  0  0
   22.7302  -17.6487    0.0000 C    0  0  0  0  0  0  0  0  0  0  0  0
   23.2269  -18.5091    0.0000 C    0  0  0  0  0  0  0  0  0  0  0  0
   22.7302  -19.3695    0.0000 C    0  0  0  0  0  0  0  0  0  0  0  0
   22.2334  -15.0676    0.0000 C    0  0  0  0  0  0  0  0  0  0  0  0
   22.7302  -14.2072    0.0000 C    0  0  0  0  0  0  0  0  0  0  0  0
   22.2334  -13.3468    0.0000 C    0  0  0  0  0  0  0  0  0  0  0  0
   22.7302  -12.4864    0.0000 C    0  0  0  0  0  0  0  0  0  0  0  0
   21.8698  -16.4247    0.0000 C    0  0  0  0  0  0  0  0  0  0  0  0
   21.8698  -17.4182    0.0000 C    0  0  0  0  0  0  0  0  0  0  0  0
   21.0094  -17.9149    0.0000 C    0  0  0  0  0  0  0  0  0  0  0  0
   21.0094  -18.9084    0.0000 C    0  0  0  0  0  0  0  0  0  0  0  0
   24.2365  -21.3281    0.0000 N    0  3  0  0  0  0  0  0  0  0  0  0
   25.0968  -20.8313    0.0000 C    0  0  0  0  0  0  0  0  0  0  0  0
   25.0968  -19.8378    0.0000 C    0  0  0  0  0  0  0  0  0  0  0  0
   25.9572  -19.3411    0.0000 C    0  0  0  0  0  0  0  0  0  0  0  0
   25.9572  -18.3476    0.0000 C    0  0  0  0  0  0  0  0  0  0  0  0
   24.7332  -22.1885    0.0000 C    0  0  0  0  0  0  0  0  0  0  0  0
   24.2365  -23.0489    0.0000 C    0  0  0  0  0  0  0  0  0  0  0  0
   24.7332  -23.9093    0.0000 C    0  0  0  0  0  0  0  0  0  0  0  0
   24.2365  -24.7696    0.0000 C    0  0  0  0  0  0  0  0  0  0  0  0
   23.7397  -20.4677    0.0000 C    0  0  0  0  0  0  0  0  0  0  0  0
   24.2365  -19.6073    0.0000 C    0  0  0  0  0  0  0  0  0  0  0  0
   23.7397  -18.7469    0.0000 C    0  0  0  0  0  0  0  0  0  0  0  0
   24.2365  -17.8865    0.0000 C    0  0  0  0  0  0  0  0  0  0  0  0
   23.3761  -21.8248    0.0000 C    0  0  0  0  0  0  0  0  0  0  0  0
   23.3761  -22.8183    0.0000 C    0  0  0  0  0  0  0  0  0  0  0  0
   22.5157  -23.3151    0.0000 C    0  0  0  0  0  0  0  0  0  0  0  0
   22.5157  -24.3086    0.0000 C    0  0  0  0  0  0  0  0  0  0  0  0
   11.5849  -15.4219    0.0000 Rh   0  6  0  0  0  0  0  0  0  0  0  0
   10.3637  -14.7168    0.0000 Cl   0  0  0  0  0  0  0  0  0  0  0  0
   11.3747  -14.0275    0.0000 Cl   0  0  0  0  0  0  0  0  0  0  0  0
   12.5440  -14.3882    0.0000 Cl   0  0  0  0  0  0  0  0  0  0  0  0
   12.9910  -15.5273    0.0000 Cl   0  0  0  0  0  0  0  0  0  0  0  0
   12.3792  -16.5870    0.0000 Cl   0  0  0  0  0  0  0  0  0  0  0  0
   10.2722  -15.9371    0.0000 S    0  0  0  0  0  0  0  0  0  0  0  0
   11.1692  -16.7694    0.0000 S    0  0  0  0  0  0  0  0  0  0  0  0
    9.1697  -15.0579    0.0000 C    0  0  0  0  0  0  0  0  0  0  0  0
   10.0620  -17.3314    0.0000 C    0  0  0  0  0  0  0  0  0  0  0  0
    9.7944  -17.0831    0.0000 C    0  0  0  0  0  0  0  0  0  0  0  0
   12.1283  -17.8031    0.0000 C    0  0  0  0  0  0  0  0  0  0  0  0
  1  2  1  0  0  0  0
  2  3  1  0  0  0  0
  3  4  1  0  0  0  0
  4  5  1  0  0  0  0
  1  6  1  0  0  0  0
  6  7  1  0  0  0  0
  7  8  1  0  0  0  0
  8  9  1  0  0  0  0
  1 10  1  0  0  0  0
 10 11  1  0  0  0  0
 11 12  1  0  0  0  0
 12 13  1  0  0  0  0
  1 14  1  0  0  0  0
 14 15  1  0  0  0  0
 15 16  1  0  0  0  0
 16 17  1  0  0  0  0
 18 19  1  0  0  0  0
 19 20  1  0  0  0  0
 20 21  1  0  0  0  0
 21 22  1  0  0  0  0
 18 23  1  0  0  0  0
 23 24  1  0  0  0  0
 24 25  1  0  0  0  0
 25 26  1  0  0  0  0
 18 27  1  0  0  0  0
 27 28  1  0  0  0  0
 28 29  1  0  0  0  0
 29 30  1  0  0  0  0
 18 31  1  0  0  0  0
 31 32  1  0  0  0  0
 32 33  1  0  0  0  0
 33 34  1  0  0  0  0
 35 36  1  0  0  0  0
 35 37  1  0  0  0  0
 35 38  1  0  0  0  0
 35 39  1  0  0  0  0
 35 40  1  0  0  0  0
 35 41  1  0  0  0  0
 35 42  1  0  0  0  0
 41 43  1  0  0  0  0
 41 44  1  0  0  0  0
 42 45  1  0  0  0  0
 42 46  1  0  0  0  0
M  END
> <NMREDATA_VERSION>
1.1

> <NMREDATA_LEVEL>
0

> <NMREDATA_SOLVENT>
CD2Cl2

> <NMREDATA_FORMULA>
C36H88Cl5N2RhS2

> <NMREDATA_SMILES>
CS([Rh](S(C)C)(Cl)(Cl)(Cl)(Cl)Cl)C.CCCCN(CCCC)(CCCC)CCCC.CCCCN(CCCC)(CCCC)CCCC

> <NMREDATA_ASSIGNMENT>
Rh35, 6521.00, 35

> <NMREDATA_1D_103Rh>
6521.00, L=Rh35

$$$$

  ACD/LABS04032410262D

 45 42  0  0  0  0  0  0  0  0  2 V2000
   22.7302  -15.9280    0.0000 N    0  3  0  0  0  0  0  0  0  0  0  0
   23.5906  -15.4312    0.0000 C    0  0  0  0  0  0  0  0  0  0  0  0
   23.5906  -14.4377    0.0000 C    0  0  0  0  0  0  0  0  0  0  0  0
   24.4510  -13.9410    0.0000 C    0  0  0  0  0  0  0  0  0  0  0  0
   24.4510  -12.9475    0.0000 C    0  0  0  0  0  0  0  0  0  0  0  0
   23.2269  -16.7883    0.0000 C    0  0  0  0  0  0  0  0  0  0  0  0
   22.7302  -17.6487    0.0000 C    0  0  0  0  0  0  0  0  0  0  0  0
   23.2269  -18.5091    0.0000 C    0  0  0  0  0  0  0  0  0  0  0  0
   22.7302  -19.3695    0.0000 C    0  0  0  0  0  0  0  0  0  0  0  0
   22.2334  -15.0676    0.0000 C    0  0  0  0  0  0  0  0  0  0  0  0
   22.7302  -14.2072    0.0000 C    0  0  0  0  0  0  0  0  0  0  0  0
   22.2334  -13.3468    0.0000 C    0  0  0  0  0  0  0  0  0  0  0  0
   22.7302  -12.4864    0.0000 C    0  0  0  0  0  0  0  0  0  0  0  0
   21.8698  -16.4247    0.0000 C    0  0  0  0  0  0  0  0  0  0  0  0
   21.8698  -17.4182    0.0000 C    0  0  0  0  0  0  0  0  0  0  0  0
   21.0094  -17.9149    0.0000 C    0  0  0  0  0  0  0  0  0  0  0  0
   21.0094  -18.9084    0.0000 C    0  0  0  0  0  0  0  0  0  0  0  0
   24.2365  -21.3281    0.0000 N    0  3  0  0  0  0  0  0  0  0  0  0
   25.0968  -20.8313    0.0000 C    0  0  0  0  0  0  0  0  0  0  0  0
   25.0968  -19.8378    0.0000 C    0  0  0  0  0  0  0  0  0  0  0  0
   25.9572  -19.3411    0.0000 C    0  0  0  0  0  0  0  0  0  0  0  0
   25.9572  -18.3476    0.0000 C    0  0  0  0  0  0  0  0  0  0  0  0
   24.7332  -22.1885    0.0000 C    0  0  0  0  0  0  0  0  0  0  0  0
   24.2365  -23.0489    0.0000 C    0  0  0  0  0  0  0  0  0  0  0  0
   24.7332  -23.9093    0.0000 C    0  0  0  0  0  0  0  0  0  0  0  0
   24.2365  -24.7696    0.0000 C    0  0  0  0  0  0  0  0  0  0  0  0
   23.7397  -20.4677    0.0000 C    0  0  0  0  0  0  0  0  0  0  0  0
   24.2365  -19.6073    0.0000 C    0  0  0  0  0  0  0  0  0  0  0  0
   23.7397  -18.7469    0.0000 C    0  0  0  0  0  0  0  0  0  0  0  0
   24.2365  -17.8865    0.0000 C    0  0  0  0  0  0  0  0  0  0  0  0
   23.3761  -21.8248    0.0000 C    0  0  0  0  0  0  0  0  0  0  0  0
   23.3761  -22.8183    0.0000 C    0  0  0  0  0  0  0  0  0  0  0  0
   22.5157  -23.3151    0.0000 C    0  0  0  0  0  0  0  0  0  0  0  0
   22.5157  -24.3086    0.0000 C    0  0  0  0  0  0  0  0  0  0  0  0
   11.5849  -15.4219    0.0000 Rh   0  6  0  0  0  0  0  0  0  0  0  0
   10.3637  -14.7168    0.0000 Cl   0  0  0  0  0  0  0  0  0  0  0  0
   11.3747  -14.0275    0.0000 Cl   0  0  0  0  0  0  0  0  0  0  0  0
   12.5440  -14.3882    0.0000 Cl   0  0  0  0  0  0  0  0  0  0  0  0
   12.9910  -15.5273    0.0000 Cl   0  0  0  0  0  0  0  0  0  0  0  0
   10.2722  -15.9371    0.0000 S    0  0  0  0  0  0  0  0  0  0  0  0
   12.3073  -16.5051    0.0000 S    0  0  0  0  0  0  0  0  0  0  0  0
    9.1697  -15.0579    0.0000 C    0  0  0  0  0  0  0  0  0  0  0  0
    9.7703  -17.3916    0.0000 C    0  0  0  0  0  0  0  0  0  0  0  0
   12.5864  -17.6615    0.0000 C    0  0  0  0  0  0  0  0  0  0  0  0
   13.3923  -17.0021    0.0000 C    0  0  0  0  0  0  0  0  0  0  0  0
  1  2  1  0  0  0  0
  2  3  1  0  0  0  0
  3  4  1  0  0  0  0
  4  5  1  0  0  0  0
  1  6  1  0  0  0  0
  6  7  1  0  0  0  0
  7  8  1  0  0  0  0
  8  9  1  0  0  0  0
  1 10  1  0  0  0  0
 10 11  1  0  0  0  0
 11 12  1  0  0  0  0
 12 13  1  0  0  0  0
  1 14  1  0  0  0  0
 14 15  1  0  0  0  0
 15 16  1  0  0  0  0
 16 17  1  0  0  0  0
 18 19  1  0  0  0  0
 19 20  1  0  0  0  0
 20 21  1  0  0  0  0
 21 22  1  0  0  0  0
 18 23  1  0  0  0  0
 23 24  1  0  0  0  0
 24 25  1  0  0  0  0
 25 26  1  0  0  0  0
 18 27  1  0  0  0  0
 27 28  1  0  0  0  0
 28 29  1  0  0  0  0
 29 30  1  0  0  0  0
 18 31  1  0  0  0  0
 31 32  1  0  0  0  0
 32 33  1  0  0  0  0
 33 34  1  0  0  0  0
 35 36  1  0  0  0  0
 35 37  1  0  0  0  0
 35 38  1  0  0  0  0
 35 39  1  0  0  0  0
 35 40  1  0  0  0  0
 35 41  1  0  0  0  0
 40 42  1  0  0  0  0
 40 43  1  0  0  0  0
 41 44  1  0  0  0  0
 41 45  1  0  0  0  0
M  END
> <NMREDATA_VERSION>
1.1

> <NMREDATA_LEVEL>
0

> <NMREDATA_SOLVENT>
CD2Cl2

> <NMREDATA_FORMULA>
C36H88Cl4N2RhS2

> <NMREDATA_SMILES>
CS([Rh](S(C)C)(Cl)(Cl)(Cl)Cl)C.CCCCN(CCCC)(CCCC)CCCC.CCCCN(CCCC)(CCCC)CCCC

> <NMREDATA_ASSIGNMENT>
Rh35, 4882.00, 35

> <NMREDATA_1D_103Rh>
4882.00, L=Rh35

$$$$

  ACD/LABS04032410262D

 45 42  0  0  0  0  0  0  0  0  2 V2000
   22.7302  -15.9280    0.0000 N    0  3  0  0  0  0  0  0  0  0  0  0
   23.5906  -15.4312    0.0000 C    0  0  0  0  0  0  0  0  0  0  0  0
   23.5906  -14.4377    0.0000 C    0  0  0  0  0  0  0  0  0  0  0  0
   24.4510  -13.9410    0.0000 C    0  0  0  0  0  0  0  0  0  0  0  0
   24.4510  -12.9475    0.0000 C    0  0  0  0  0  0  0  0  0  0  0  0
   23.2269  -16.7883    0.0000 C    0  0  0  0  0  0  0  0  0  0  0  0
   22.7302  -17.6487    0.0000 C    0  0  0  0  0  0  0  0  0  0  0  0
   23.2269  -18.5091    0.0000 C    0  0  0  0  0  0  0  0  0  0  0  0
   22.7302  -19.3695    0.0000 C    0  0  0  0  0  0  0  0  0  0  0  0
   22.2334  -15.0676    0.0000 C    0  0  0  0  0  0  0  0  0  0  0  0
   22.7302  -14.2072    0.0000 C    0  0  0  0  0  0  0  0  0  0  0  0
   22.2334  -13.3468    0.0000 C    0  0  0  0  0  0  0  0  0  0  0  0
   22.7302  -12.4864    0.0000 C    0  0  0  0  0  0  0  0  0  0  0  0
   21.8698  -16.4247    0.0000 C    0  0  0  0  0  0  0  0  0  0  0  0
   21.8698  -17.4182    0.0000 C    0  0  0  0  0  0  0  0  0  0  0  0
   21.0094  -17.9149    0.0000 C    0  0  0  0  0  0  0  0  0  0  0  0
   21.0094  -18.9084    0.0000 C    0  0  0  0  0  0  0  0  0  0  0  0
   24.2365  -21.3281    0.0000 N    0  3  0  0  0  0  0  0  0  0  0  0
   25.0968  -20.8313    0.0000 C    0  0  0  0  0  0  0  0  0  0  0  0
   25.0968  -19.8378    0.0000 C    0  0  0  0  0  0  0  0  0  0  0  0
   25.9572  -19.3411    0.0000 C    0  0  0  0  0  0  0  0  0  0  0  0
   25.9572  -18.3476    0.0000 C    0  0  0  0  0  0  0  0  0  0  0  0
   24.7332  -22.1885    0.0000 C    0  0  0  0  0  0  0  0  0  0  0  0
   24.2365  -23.0489    0.0000 C    0  0  0  0  0  0  0  0  0  0  0  0
   24.7332  -23.9093    0.0000 C    0  0  0  0  0  0  0  0  0  0  0  0
   24.2365  -24.7696    0.0000 C    0  0  0  0  0  0  0  0  0  0  0  0
   23.7397  -20.4677    0.0000 C    0  0  0  0  0  0  0  0  0  0  0  0
   24.2365  -19.6073    0.0000 C    0  0  0  0  0  0  0  0  0  0  0  0
   23.7397  -18.7469    0.0000 C    0  0  0  0  0  0  0  0  0  0  0  0
   24.2365  -17.8865    0.0000 C    0  0  0  0  0  0  0  0  0  0  0  0
   23.3761  -21.8248    0.0000 C    0  0  0  0  0  0  0  0  0  0  0  0
   23.3761  -22.8183    0.0000 C    0  0  0  0  0  0  0  0  0  0  0  0
   22.5157  -23.3151    0.0000 C    0  0  0  0  0  0  0  0  0  0  0  0
   22.5157  -24.3086    0.0000 C    0  0  0  0  0  0  0  0  0  0  0  0
   11.5849  -15.4219    0.0000 Rh   0  6  0  0  0  0  0  0  0  0  0  0
   10.3637  -14.7168    0.0000 Cl   0  0  0  0  0  0  0  0  0  0  0  0
   11.3747  -14.0275    0.0000 Cl   0  0  0  0  0  0  0  0  0  0  0  0
   13.2724  -16.2907    0.0000 Cl   0  0  0  0  0  0  0  0  0  0  0  0
   12.4487  -17.0012    0.0000 Cl   0  0  0  0  0  0  0  0  0  0  0  0
   10.2722  -15.9371    0.0000 S    0  0  0  0  0  0  0  0  0  0  0  0
   13.1254  -14.3902    0.0000 S    0  0  0  0  0  0  0  0  0  0  0  0
    9.1697  -15.0579    0.0000 C    0  0  0  0  0  0  0  0  0  0  0  0
    9.7703  -17.3916    0.0000 C    0  0  0  0  0  0  0  0  0  0  0  0
   14.9493  -15.0044    0.0000 C    0  0  0  0  0  0  0  0  0  0  0  0
   14.4782  -14.0062    0.0000 C    0  0  0  0  0  0  0  0  0  0  0  0
  1  2  1  0  0  0  0
  2  3  1  0  0  0  0
  3  4  1  0  0  0  0
  4  5  1  0  0  0  0
  1  6  1  0  0  0  0
  6  7  1  0  0  0  0
  7  8  1  0  0  0  0
  8  9  1  0  0  0  0
  1 10  1  0  0  0  0
 10 11  1  0  0  0  0
 11 12  1  0  0  0  0
 12 13  1  0  0  0  0
  1 14  1  0  0  0  0
 14 15  1  0  0  0  0
 15 16  1  0  0  0  0
 16 17  1  0  0  0  0
 18 19  1  0  0  0  0
 19 20  1  0  0  0  0
 20 21  1  0  0  0  0
 21 22  1  0  0  0  0
 18 23  1  0  0  0  0
 23 24  1  0  0  0  0
 24 25  1  0  0  0  0
 25 26  1  0  0  0  0
 18 27  1  0  0  0  0
 27 28  1  0  0  0  0
 28 29  1  0  0  0  0
 29 30  1  0  0  0  0
 18 31  1  0  0  0  0
 31 32  1  0  0  0  0
 32 33  1  0  0  0  0
 33 34  1  0  0  0  0
 35 36  1  0  0  0  0
 35 37  1  0  0  0  0
 35 38  1  0  0  0  0
 35 39  1  0  0  0  0
 35 40  1  0  0  0  0
 35 41  1  0  0  0  0
 40 42  1  0  0  0  0
 40 43  1  0  0  0  0
 41 44  1  0  0  0  0
 41 45  1  0  0  0  0
M  END
> <NMREDATA_VERSION>
1.1

> <NMREDATA_LEVEL>
0

> <NMREDATA_SOLVENT>
CD2Cl2

> <NMREDATA_FORMULA>
C36H88Cl4N2RhS2

> <NMREDATA_SMILES>
CS([Rh](S(C)C)(Cl)(Cl)(Cl)Cl)C.CCCCN(CCCC)(CCCC)CCCC.CCCCN(CCCC)(CCCC)CCCC

> <NMREDATA_ASSIGNMENT>
Rh35, 5226.00, 35

> <NMREDATA_1D_103Rh>
5226.00, L=Rh35

$$$$

  ACD/LABS04032410332D

 47 44  0  0  0  0  0  0  0  0  2 V2000
   22.7302  -15.9280    0.0000 N    0  3  0  0  0  0  0  0  0  0  0  0
   23.5906  -15.4312    0.0000 C    0  0  0  0  0  0  0  0  0  0  0  0
   23.5906  -14.4377    0.0000 C    0  0  0  0  0  0  0  0  0  0  0  0
   24.4510  -13.9410    0.0000 C    0  0  0  0  0  0  0  0  0  0  0  0
   24.4510  -12.9475    0.0000 C    0  0  0  0  0  0  0  0  0  0  0  0
   23.2269  -16.7883    0.0000 C    0  0  0  0  0  0  0  0  0  0  0  0
   22.7302  -17.6487    0.0000 C    0  0  0  0  0  0  0  0  0  0  0  0
   23.2269  -18.5091    0.0000 C    0  0  0  0  0  0  0  0  0  0  0  0
   22.7302  -19.3695    0.0000 C    0  0  0  0  0  0  0  0  0  0  0  0
   22.2334  -15.0676    0.0000 C    0  0  0  0  0  0  0  0  0  0  0  0
   22.7302  -14.2072    0.0000 C    0  0  0  0  0  0  0  0  0  0  0  0
   22.2334  -13.3468    0.0000 C    0  0  0  0  0  0  0  0  0  0  0  0
   22.7302  -12.4864    0.0000 C    0  0  0  0  0  0  0  0  0  0  0  0
   21.8698  -16.4247    0.0000 C    0  0  0  0  0  0  0  0  0  0  0  0
   21.8698  -17.4182    0.0000 C    0  0  0  0  0  0  0  0  0  0  0  0
   21.0094  -17.9149    0.0000 C    0  0  0  0  0  0  0  0  0  0  0  0
   21.0094  -18.9084    0.0000 C    0  0  0  0  0  0  0  0  0  0  0  0
   24.2365  -21.3281    0.0000 N    0  3  0  0  0  0  0  0  0  0  0  0
   25.0968  -20.8313    0.0000 C    0  0  0  0  0  0  0  0  0  0  0  0
   25.0968  -19.8378    0.0000 C    0  0  0  0  0  0  0  0  0  0  0  0
   25.9572  -19.3411    0.0000 C    0  0  0  0  0  0  0  0  0  0  0  0
   25.9572  -18.3476    0.0000 C    0  0  0  0  0  0  0  0  0  0  0  0
   24.7332  -22.1885    0.0000 C    0  0  0  0  0  0  0  0  0  0  0  0
   24.2365  -23.0489    0.0000 C    0  0  0  0  0  0  0  0  0  0  0  0
   24.7332  -23.9093    0.0000 C    0  0  0  0  0  0  0  0  0  0  0  0
   24.2365  -24.7696    0.0000 C    0  0  0  0  0  0  0  0  0  0  0  0
   23.7397  -20.4677    0.0000 C    0  0  0  0  0  0  0  0  0  0  0  0
   24.2365  -19.6073    0.0000 C    0  0  0  0  0  0  0  0  0  0  0  0
   23.7397  -18.7469    0.0000 C    0  0  0  0  0  0  0  0  0  0  0  0
   24.2365  -17.8865    0.0000 C    0  0  0  0  0  0  0  0  0  0  0  0
   23.3761  -21.8248    0.0000 C    0  0  0  0  0  0  0  0  0  0  0  0
   23.3761  -22.8183    0.0000 C    0  0  0  0  0  0  0  0  0  0  0  0
   22.5157  -23.3151    0.0000 C    0  0  0  0  0  0  0  0  0  0  0  0
   22.5157  -24.3086    0.0000 C    0  0  0  0  0  0  0  0  0  0  0  0
   11.5849  -15.4219    0.0000 Rh   0  6  0  0  0  0  0  0  0  0  0  0
   10.3637  -14.7168    0.0000 Cl   0  0  0  0  0  0  0  0  0  0  0  0
   11.3747  -14.0275    0.0000 Cl   0  0  0  0  0  0  0  0  0  0  0  0
   13.2724  -16.2907    0.0000 S    0  0  0  0  0  0  0  0  0  0  0  0
   12.4487  -17.0012    0.0000 Cl   0  0  0  0  0  0  0  0  0  0  0  0
   10.2722  -15.9371    0.0000 S    0  0  0  0  0  0  0  0  0  0  0  0
   13.1254  -14.3902    0.0000 S    0  0  0  0  0  0  0  0  0  0  0  0
    9.1697  -15.0579    0.0000 C    0  0  0  0  0  0  0  0  0  0  0  0
    9.7703  -17.3916    0.0000 C    0  0  0  0  0  0  0  0  0  0  0  0
   14.9493  -15.0044    0.0000 C    0  0  0  0  0  0  0  0  0  0  0  0
   14.4782  -14.0062    0.0000 C    0  0  0  0  0  0  0  0  0  0  0  0
   14.4858  -17.7066    0.0000 C    0  0  0  0  0  0  0  0  0  0  0  0
   14.5819  -16.1843    0.0000 C    0  0  0  0  0  0  0  0  0  0  0  0
  1  2  1  0  0  0  0
  2  3  1  0  0  0  0
  3  4  1  0  0  0  0
  4  5  1  0  0  0  0
  1  6  1  0  0  0  0
  6  7  1  0  0  0  0
  7  8  1  0  0  0  0
  8  9  1  0  0  0  0
  1 10  1  0  0  0  0
 10 11  1  0  0  0  0
 11 12  1  0  0  0  0
 12 13  1  0  0  0  0
  1 14  1  0  0  0  0
 14 15  1  0  0  0  0
 15 16  1  0  0  0  0
 16 17  1  0  0  0  0
 18 19  1  0  0  0  0
 19 20  1  0  0  0  0
 20 21  1  0  0  0  0
 21 22  1  0  0  0  0
 18 23  1  0  0  0  0
 23 24  1  0  0  0  0
 24 25  1  0  0  0  0
 25 26  1  0  0  0  0
 18 27  1  0  0  0  0
 27 28  1  0  0  0  0
 28 29  1  0  0  0  0
 29 30  1  0  0  0  0
 18 31  1  0  0  0  0
 31 32  1  0  0  0  0
 32 33  1  0  0  0  0
 33 34  1  0  0  0  0
 35 36  1  0  0  0  0
 35 37  1  0  0  0  0
 35 38  1  0  0  0  0
 35 39  1  0  0  0  0
 35 40  1  0  0  0  0
 35 41  1  0  0  0  0
 40 42  1  0  0  0  0
 40 43  1  0  0  0  0
 41 44  1  0  0  0  0
 41 45  1  0  0  0  0
 38 46  1  0  0  0  0
 38 47  1  0  0  0  0
M  END
> <NMREDATA_VERSION>
1.1

> <NMREDATA_LEVEL>
0

> <NMREDATA_SOLVENT>
CD2Cl2

> <NMREDATA_FORMULA>
C38H95Cl3N2RhS3

> <NMREDATA_SMILES>
CS([Rh](S(C)C)(S(C)C)(Cl)(Cl)Cl)C.CCCCN(CCCC)(CCCC)CCCC.CCCCN(CCCC)(CCCC)CCCC

> <NMREDATA_ASSIGNMENT>
Rh35, 3897.00, 35

> <NMREDATA_1D_103Rh>
3897.00, L=Rh35

$$$$

  ACD/LABS04032410332D

 47 44  0  0  0  0  0  0  0  0  2 V2000
   22.7302  -15.9280    0.0000 N    0  3  0  0  0  0  0  0  0  0  0  0
   23.5906  -15.4312    0.0000 C    0  0  0  0  0  0  0  0  0  0  0  0
   23.5906  -14.4377    0.0000 C    0  0  0  0  0  0  0  0  0  0  0  0
   24.4510  -13.9410    0.0000 C    0  0  0  0  0  0  0  0  0  0  0  0
   24.4510  -12.9475    0.0000 C    0  0  0  0  0  0  0  0  0  0  0  0
   23.2269  -16.7883    0.0000 C    0  0  0  0  0  0  0  0  0  0  0  0
   22.7302  -17.6487    0.0000 C    0  0  0  0  0  0  0  0  0  0  0  0
   23.2269  -18.5091    0.0000 C    0  0  0  0  0  0  0  0  0  0  0  0
   22.7302  -19.3695    0.0000 C    0  0  0  0  0  0  0  0  0  0  0  0
   22.2334  -15.0676    0.0000 C    0  0  0  0  0  0  0  0  0  0  0  0
   22.7302  -14.2072    0.0000 C    0  0  0  0  0  0  0  0  0  0  0  0
   22.2334  -13.3468    0.0000 C    0  0  0  0  0  0  0  0  0  0  0  0
   22.7302  -12.4864    0.0000 C    0  0  0  0  0  0  0  0  0  0  0  0
   21.8698  -16.4247    0.0000 C    0  0  0  0  0  0  0  0  0  0  0  0
   21.8698  -17.4182    0.0000 C    0  0  0  0  0  0  0  0  0  0  0  0
   21.0094  -17.9149    0.0000 C    0  0  0  0  0  0  0  0  0  0  0  0
   21.0094  -18.9084    0.0000 C    0  0  0  0  0  0  0  0  0  0  0  0
   24.2365  -21.3281    0.0000 N    0  3  0  0  0  0  0  0  0  0  0  0
   25.0968  -20.8313    0.0000 C    0  0  0  0  0  0  0  0  0  0  0  0
   25.0968  -19.8378    0.0000 C    0  0  0  0  0  0  0  0  0  0  0  0
   25.9572  -19.3411    0.0000 C    0  0  0  0  0  0  0  0  0  0  0  0
   25.9572  -18.3476    0.0000 C    0  0  0  0  0  0  0  0  0  0  0  0
   24.7332  -22.1885    0.0000 C    0  0  0  0  0  0  0  0  0  0  0  0
   24.2365  -23.0489    0.0000 C    0  0  0  0  0  0  0  0  0  0  0  0
   24.7332  -23.9093    0.0000 C    0  0  0  0  0  0  0  0  0  0  0  0
   24.2365  -24.7696    0.0000 C    0  0  0  0  0  0  0  0  0  0  0  0
   23.7397  -20.4677    0.0000 C    0  0  0  0  0  0  0  0  0  0  0  0
   24.2365  -19.6073    0.0000 C    0  0  0  0  0  0  0  0  0  0  0  0
   23.7397  -18.7469    0.0000 C    0  0  0  0  0  0  0  0  0  0  0  0
   24.2365  -17.8865    0.0000 C    0  0  0  0  0  0  0  0  0  0  0  0
   23.3761  -21.8248    0.0000 C    0  0  0  0  0  0  0  0  0  0  0  0
   23.3761  -22.8183    0.0000 C    0  0  0  0  0  0  0  0  0  0  0  0
   22.5157  -23.3151    0.0000 C    0  0  0  0  0  0  0  0  0  0  0  0
   22.5157  -24.3086    0.0000 C    0  0  0  0  0  0  0  0  0  0  0  0
   11.5849  -15.4219    0.0000 Rh   0  6  0  0  0  0  0  0  0  0  0  0
   10.3637  -14.7168    0.0000 Cl   0  0  0  0  0  0  0  0  0  0  0  0
   11.3747  -14.0275    0.0000 Cl   0  0  0  0  0  0  0  0  0  0  0  0
   13.2724  -16.2907    0.0000 S    0  0  0  0  0  0  0  0  0  0  0  0
   10.2152  -16.4714    0.0000 Cl   0  0  0  0  0  0  0  0  0  0  0  0
   12.3721  -17.2121    0.0000 S    0  0  0  0  0  0  0  0  0  0  0  0
   13.1254  -14.3902    0.0000 S    0  0  0  0  0  0  0  0  0  0  0  0
   11.8657  -18.1137    0.0000 C    0  0  0  0  0  0  0  0  0  0  0  0
   13.0581  -18.1131    0.0000 C    0  0  0  0  0  0  0  0  0  0  0  0
   14.9493  -15.0044    0.0000 C    0  0  0  0  0  0  0  0  0  0  0  0
   14.4782  -14.0062    0.0000 C    0  0  0  0  0  0  0  0  0  0  0  0
   14.4858  -17.7066    0.0000 C    0  0  0  0  0  0  0  0  0  0  0  0
   14.5819  -16.1843    0.0000 C    0  0  0  0  0  0  0  0  0  0  0  0
  1  2  1  0  0  0  0
  2  3  1  0  0  0  0
  3  4  1  0  0  0  0
  4  5  1  0  0  0  0
  1  6  1  0  0  0  0
  6  7  1  0  0  0  0
  7  8  1  0  0  0  0
  8  9  1  0  0  0  0
  1 10  1  0  0  0  0
 10 11  1  0  0  0  0
 11 12  1  0  0  0  0
 12 13  1  0  0  0  0
  1 14  1  0  0  0  0
 14 15  1  0  0  0  0
 15 16  1  0  0  0  0
 16 17  1  0  0  0  0
 18 19  1  0  0  0  0
 19 20  1  0  0  0  0
 20 21  1  0  0  0  0
 21 22  1  0  0  0  0
 18 23  1  0  0  0  0
 23 24  1  0  0  0  0
 24 25  1  0  0  0  0
 25 26  1  0  0  0  0
 18 27  1  0  0  0  0
 27 28  1  0  0  0  0
 28 29  1  0  0  0  0
 29 30  1  0  0  0  0
 18 31  1  0  0  0  0
 31 32  1  0  0  0  0
 32 33  1  0  0  0  0
 33 34  1  0  0  0  0
 35 36  1  0  0  0  0
 35 37  1  0  0  0  0
 35 38  1  0  0  0  0
 35 39  1  0  0  0  0
 35 40  1  0  0  0  0
 35 41  1  0  0  0  0
 40 42  1  0  0  0  0
 40 43  1  0  0  0  0
 41 44  1  0  0  0  0
 41 45  1  0  0  0  0
 38 46  1  0  0  0  0
 38 47  1  0  0  0  0
M  END
> <NMREDATA_VERSION>
1.1

> <NMREDATA_LEVEL>
0

> <NMREDATA_SOLVENT>
CD2Cl2

> <NMREDATA_FORMULA>
C38H95Cl3N2RhS3

> <NMREDATA_SMILES>
CS([Rh](S(C)C)(S(C)C)(Cl)(Cl)Cl)C.CCCCN(CCCC)(CCCC)CCCC.CCCCN(CCCC)(CCCC)CCCC

> <NMREDATA_ASSIGNMENT>
Rh35, 3661.00, 35

> <NMREDATA_1D_103Rh>
3661.00, L=Rh35

$$$$

  ACD/LABS04032410362D

 19 17  0  0  0  0  0  0  0  0  2 V2000
   11.5849  -15.4219    0.0000 Rh   0  0  0  0  0  0  0  0  0  0  0  0
   10.6161  -14.4351    0.0000 Cl   0  0  0  0  0  0  0  0  0  0  0  0
   13.2310  -17.0465    0.0000 Cl   0  0  0  0  0  0  0  0  0  0  0  0
   13.5813  -15.6279    0.0000 S    0  0  0  0  0  0  0  0  0  0  0  0
   10.9635  -17.1341    0.0000 S    0  0  0  0  0  0  0  0  0  0  0  0
   12.6623  -14.0703    0.0000 S    0  0  0  0  0  0  0  0  0  0  0  0
   10.1267  -17.6523    0.0000 C    0  0  0  0  0  0  0  0  0  0  0  0
   10.8262  -18.0025    0.0000 C    0  0  0  0  0  0  0  0  0  0  0  0
   14.3072  -13.8724    0.0000 C    0  0  0  0  0  0  0  0  0  0  0  0
   12.9642  -12.9657    0.0000 C    0  0  0  0  0  0  0  0  0  0  0  0
   15.1428  -16.2324    0.0000 C    0  0  0  0  0  0  0  0  0  0  0  0
   14.7101  -15.1908    0.0000 C    0  0  0  0  0  0  0  0  0  0  0  0
    9.8548  -15.9280    0.0000 S    0  0  0  0  0  0  0  0  0  0  0  0
    9.2299  -15.1588    0.0000 C    0  0  0  0  0  0  0  0  0  0  0  0
    9.0376  -16.5208    0.0000 C    0  0  0  0  0  0  0  0  0  0  0  0
   22.5179  -17.5143    0.0000 N    0  0  0  0  0  0  0  0  0  0  0  0
   23.1829  -18.6661    0.0000 O    0  5  0  0  0  0  0  0  0  0  0  0
   23.1829  -16.3625    0.0000 O    0  0  0  0  0  0  0  0  0  0  0  0
   21.2480  -18.1713    0.0000 O    0  0  0  0  0  0  0  0  0  0  0  0
  1  2  1  0  0  0  0
  1  3  1  0  0  0  0
  1  4  1  0  0  0  0
  1  5  1  0  0  0  0
  1  6  1  0  0  0  0
  5  7  1  0  0  0  0
  5  8  1  0  0  0  0
  6  9  1  0  0  0  0
  6 10  1  0  0  0  0
  4 11  1  0  0  0  0
  4 12  1  0  0  0  0
  1 13  1  0  0  0  0
 13 14  1  0  0  0  0
 13 15  1  0  0  0  0
 16 17  1  0  0  0  0
 16 18  2  0  0  0  0
 16 19  2  0  0  0  0
M  END
> <NMREDATA_VERSION>
1.1

> <NMREDATA_LEVEL>
0

> <NMREDATA_SOLVENT>
nitromethane

> <NMREDATA_FORMULA>
C8H29Cl2NO3RhS4

> <NMREDATA_SMILES>
CS([Rh](S(C)C)(S(C)C)(S(C)C)(Cl)Cl)C.ON(=O)=O

> <NMREDATA_ASSIGNMENT>
Rh1, 3081.00, 1

> <NMREDATA_1D_103Rh>
3081.00, L=Rh1

$$$$

  ACD/LABS04032410382D

 18 17  0  0  0  0  0  0  0  0  1 V2000
   11.0875  -21.0267    0.0000 C    0  0  0  0  0  0  0  0  0  0  0  0
   11.0875  -22.7253    0.0000 As   0  0  0  0  0  0  0  0  0  0  0  0
   12.5585  -23.5746    0.0000 C    0  0  0  0  0  0  0  0  0  0  0  0
    9.6165  -23.5746    0.0000 C    0  0  0  0  0  0  0  0  0  0  0  0
   11.2962  -19.0409    0.0000 Rh   0  0  0  0  0  0  0  0  0  0  0  0
   10.1597  -20.3032    0.0000 Cl   0  0  0  0  0  0  0  0  0  0  0  0
   12.4328  -17.7786    0.0000 Cl   0  0  0  0  0  0  0  0  0  0  0  0
   10.0340  -17.9043    0.0000 Cl   0  0  0  0  0  0  0  0  0  0  0  0
   12.5585  -20.1775    0.0000 C    0  0  0  0  0  0  0  0  0  0  0  0
   13.2494  -18.6257    0.0000 C    0  0  0  0  0  0  0  0  0  0  0  0
   14.2478  -20.3550    0.0000 C    0  0  0  0  0  0  0  0  0  0  0  0
   15.2462  -18.9808    0.0000 As   0  0  0  0  0  0  0  0  0  0  0  0
   14.5553  -17.4291    0.0000 C    0  0  0  0  0  0  0  0  0  0  0  0
   16.9354  -19.1584    0.0000 C    0  0  0  0  0  0  0  0  0  0  0  0
   12.9117  -21.8389    0.0000 C    0  0  0  0  0  0  0  0  0  0  0  0
   14.5271  -22.3638    0.0000 As   0  0  0  0  0  0  0  0  0  0  0  0
   15.7894  -21.2272    0.0000 C    0  0  0  0  0  0  0  0  0  0  0  0
   14.8802  -24.0252    0.0000 C    0  0  0  0  0  0  0  0  0  0  0  0
  1  2  1  0  0  0  0
  2  3  1  0  0  0  0
  2  4  1  0  0  0  0
  5  6  1  0  0  0  0
  5  7  1  0  0  0  0
  5  8  1  0  0  0  0
  5  9  1  0  0  0  0
  9 10  1  0  0  0  0
  9 11  1  0  0  0  0
 11 12  1  0  0  0  0
 12 13  1  0  0  0  0
 12 14  1  0  0  0  0
 15 16  1  0  0  0  0
 16 17  1  0  0  0  0
 16 18  1  0  0  0  0
  9 15  1  0  0  0  0
  1  9  1  0  0  0  0
M  END
> <NMREDATA_VERSION>
1.1

> <NMREDATA_LEVEL>
0

> <NMREDATA_SOLVENT>
CD2Cl2

> <NMREDATA_TEMPERATURE>
300

> <NMREDATA_FORMULA>
C11H27As3Cl3Rh

> <NMREDATA_SMILES>
C[As](C[C]([Rh](Cl)(Cl)Cl)(C[As](C)C)(C[As](C)C)C)C

> <NMREDATA_ASSIGNMENT>
Rh5, 2428.00, 5

> <NMREDATA_1D_103Rh>
2428.00, L=Rh5

$$$$

  ACD/LABS04032410392D

 13 12  0  0  0  0  0  0  0  0  1 V2000
   13.2840  -17.7066    0.0000 Rh   0  0  0  0  0  0  0  0  0  0  0  0
   13.5884  -16.1683    0.0000 Cl   0  0  0  0  0  0  0  0  0  0  0  0
   15.1268  -17.5143    0.0000 Cl   0  0  0  0  0  0  0  0  0  0  0  0
   12.0021  -18.5880    0.0000 Cl   0  0  0  0  0  0  0  0  0  0  0  0
   11.3931  -17.4342    0.0000 Te   0  0  0  0  0  0  0  0  0  0  0  0
   12.0822  -16.3606    0.0000 Te   0  0  0  0  0  0  0  0  0  0  0  0
   13.9890  -18.8123    0.0000 Te   0  0  0  0  0  0  0  0  0  0  0  0
   12.2584  -14.9665    0.0000 C    0  0  0  0  0  0  0  0  0  0  0  0
   11.2169  -15.6235    0.0000 C    0  0  0  0  0  0  0  0  0  0  0  0
   10.4157  -16.7612    0.0000 C    0  0  0  0  0  0  0  0  0  0  0  0
   10.1913  -17.6906    0.0000 C    0  0  0  0  0  0  0  0  0  0  0  0
   13.8608  -19.6295    0.0000 C    0  0  0  0  0  0  0  0  0  0  0  0
   15.7677  -19.3251    0.0000 C    0  0  0  0  0  0  0  0  0  0  0  0
  1  2  1  0  0  0  0
  1  3  1  0  0  0  0
  1  4  1  0  0  0  0
  1  5  1  0  0  0  0
  1  6  1  0  0  0  0
  1  7  1  0  0  0  0
  6  8  1  0  0  0  0
  6  9  1  0  0  0  0
  5 10  1  0  0  0  0
  5 11  1  0  0  0  0
  7 12  1  0  0  0  0
  7 13  1  0  0  0  0
M  END
> <NMREDATA_VERSION>
1.1

> <NMREDATA_LEVEL>
0

> <NMREDATA_SOLVENT>
CD2Cl2

> <NMREDATA_FORMULA>
C6H21Cl3RhTe3

> <NMREDATA_SMILES>
C[TeH]([Rh]([TeH](C)C)([TeH](C)C)(Cl)(Cl)Cl)C

> <NMREDATA_ASSIGNMENT>
Rh1, 3179.00, 1

> <NMREDATA_1D_103Rh>
3179.00, L=Rh1

$$$$

  ACD/LABS04032410442D

 35 36  0  0  0  0  0  0  0  0  2 V2000
   24.6050  -16.0642    0.0000 B    0  5  0  0  0  0  0  0  0  0  0  0
   24.6050  -15.0707    0.0000 F    0  0  0  0  0  0  0  0  0  0  0  0
   25.5985  -16.0642    0.0000 F    0  0  0  0  0  0  0  0  0  0  0  0
   23.6115  -16.0642    0.0000 F    0  0  0  0  0  0  0  0  0  0  0  0
   24.6050  -17.0577    0.0000 F    0  0  0  0  0  0  0  0  0  0  0  0
   16.6593  -15.7318    0.0000 C    0  0  0  0  0  0  0  0  0  0  0  0
   17.4757  -14.6757    0.0000 C    0  0  0  0  0  0  0  0  0  0  0  0
   15.3368  -15.5453    0.0000 C    0  0  0  0  0  0  0  0  0  0  0  0
   16.9697  -13.4422    0.0000 C    0  0  0  0  0  0  0  0  0  0  0  0
   14.8398  -14.3208    0.0000 C    0  0  0  0  0  0  0  0  0  0  0  0
   15.6475  -13.2646    0.0000 C    0  0  0  0  0  0  0  0  0  0  0  0
   13.5174  -14.1342    0.0000 As   0  0  0  0  0  0  0  0  0  0  0  0
   12.7103  -15.1904    0.0000 C    0  0  0  0  0  0  0  0  0  0  0  0
   13.0210  -12.9007    0.0000 C    0  0  0  0  0  0  0  0  0  0  0  0
   14.3960  -20.5858    0.0000 C    0  0  0  0  0  0  0  0  0  0  0  0
   13.2692  -19.8848    0.0000 C    0  0  0  0  0  0  0  0  0  0  0  0
   15.5676  -19.9557    0.0000 C    0  0  0  0  0  0  0  0  0  0  0  0
   13.3047  -18.5537    0.0000 C    0  0  0  0  0  0  0  0  0  0  0  0
   15.6121  -18.6246    0.0000 C    0  0  0  0  0  0  0  0  0  0  0  0
   14.4850  -17.9236    0.0000 C    0  0  0  0  0  0  0  0  0  0  0  0
   16.7834  -17.9945    0.0000 As   0  0  0  0  0  0  0  0  0  0  0  0
   16.8278  -16.6724    0.0000 C    0  0  0  0  0  0  0  0  0  0  0  0
   17.9195  -18.6955    0.0000 C    0  0  0  0  0  0  0  0  0  0  0  0
   11.8849  -18.7222    0.0000 C    0  0  0  0  0  0  0  0  0  0  0  0
   10.8110  -19.5032    0.0000 C    0  0  0  0  0  0  0  0  0  0  0  0
   11.7431  -17.3998    0.0000 C    0  0  0  0  0  0  0  0  0  0  0  0
    9.5952  -18.9617    0.0000 C    0  0  0  0  0  0  0  0  0  0  0  0
   10.5270  -16.8584    0.0000 C    0  0  0  0  0  0  0  0  0  0  0  0
    9.4534  -17.6393    0.0000 C    0  0  0  0  0  0  0  0  0  0  0  0
    9.9504  -15.6696    0.0000 As   0  0  0  0  0  0  0  0  0  0  0  0
    8.6190  -15.5720    0.0000 C    0  0  0  0  0  0  0  0  0  0  0  0
   11.0240  -14.8887    0.0000 C    0  0  0  0  0  0  0  0  0  0  0  0
   14.5204  -16.6014    0.0000 Rh   0  0  0  0  0  0  0  0  0  0  0  0
   13.7749  -15.5011    0.0000 Cl   0  0  0  0  0  0  0  0  0  0  0  0
   15.7716  -17.0450    0.0000 Cl   0  0  0  0  0  0  0  0  0  0  0  0
  1  2  1  0  0  0  0
  1  3  1  0  0  0  0
  1  4  1  0  0  0  0
  1  5  1  0  0  0  0
  6  7  1  0  0  0  0
  6  8  2  0  0  0  0
  7  9  2  0  0  0  0
  8 10  1  0  0  0  0
  9 11  1  0  0  0  0
 10 11  2  0  0  0  0
 10 12  1  0  0  0  0
 12 13  1  0  0  0  0
 12 14  1  0  0  0  0
 15 16  1  0  0  0  0
 15 17  2  0  0  0  0
 16 18  2  0  0  0  0
 17 19  1  0  0  0  0
 18 20  1  0  0  0  0
 19 20  2  0  0  0  0
 19 21  1  0  0  0  0
 21 22  1  0  0  0  0
 21 23  1  0  0  0  0
 24 25  1  0  0  0  0
 24 26  2  0  0  0  0
 25 27  2  0  0  0  0
 26 28  1  0  0  0  0
 27 29  1  0  0  0  0
 28 29  2  0  0  0  0
 28 30  1  0  0  0  0
 30 31  1  0  0  0  0
 30 32  1  0  0  0  0
 33 34  1  0  0  0  0
 33 35  1  0  0  0  0
 26 33  1  0  0  0  0
 20 33  1  0  0  0  0
  8 33  1  0  0  0  0
M  END
> <NMREDATA_VERSION>
1.1

> <NMREDATA_LEVEL>
0

> <NMREDATA_SOLVENT>
CD2Cl2

> <NMREDATA_TEMPERATURE>
300

> <NMREDATA_FORMULA>
C24H30As3BCl2F4Rh

> <NMREDATA_SMILES>
F[B](F)(F)F.C[As](c1ccccc1[Rh](c1ccccc1[As](C)C)(c1ccccc1[As](C)C)(Cl)Cl)C

> <NMREDATA_ASSIGNMENT>
Rh33, 1750.00, 33

> <NMREDATA_1D_103Rh>
1750.00, L=Rh33

$$$$

  ACD/LABS04032410462D

 62 68  0  0  0  0  0  0  0  0  2 V2000
   13.3481  -15.5113    0.0000 Rh   0  2  0  0  0  0  0  0  0  0  0  0
   12.2264  -13.9410    0.0000 Cl   0  0  0  0  0  0  0  0  0  0  0  0
   14.5980  -16.9855    0.0000 Cl   0  0  0  0  0  0  0  0  0  0  0  0
   14.8223  -14.5499    0.0000 Sb   0  5  0  0  0  0  0  0  0  0  0  0
   11.7457  -16.5048    0.0000 Sb   0  5  0  0  0  0  0  0  0  0  0  0
   16.5435  -15.4227    0.0000 C    0  0  0  0  0  0  0  0  0  0  0  0
   18.1599  -14.3685    0.0000 C    0  0  0  0  0  0  0  0  0  0  0  0
   16.6483  -17.3498    0.0000 C    0  0  0  0  0  0  0  0  0  0  0  0
   19.8812  -15.2414    0.0000 C    0  0  0  0  0  0  0  0  0  0  0  0
   18.3694  -18.2225    0.0000 C    0  0  0  0  0  0  0  0  0  0  0  0
   19.9859  -17.1683    0.0000 C    0  0  0  0  0  0  0  0  0  0  0  0
   14.7176  -12.6229    0.0000 C    0  0  0  0  0  0  0  0  0  0  0  0
   12.9964  -11.7501    0.0000 C    0  0  0  0  0  0  0  0  0  0  0  0
   16.3341  -11.5686    0.0000 C    0  0  0  0  0  0  0  0  0  0  0  0
   12.8917   -9.8230    0.0000 C    0  0  0  0  0  0  0  0  0  0  0  0
   16.2293   -9.6417    0.0000 C    0  0  0  0  0  0  0  0  0  0  0  0
   14.5082   -8.7689    0.0000 C    0  0  0  0  0  0  0  0  0  0  0  0
   10.0449  -15.5929    0.0000 C    0  0  0  0  0  0  0  0  0  0  0  0
    8.4047  -16.6097    0.0000 C    0  0  0  0  0  0  0  0  0  0  0  0
    9.9843  -13.6639    0.0000 C    0  0  0  0  0  0  0  0  0  0  0  0
    6.7039  -15.6976    0.0000 C    0  0  0  0  0  0  0  0  0  0  0  0
    8.2836  -12.7519    0.0000 C    0  0  0  0  0  0  0  0  0  0  0  0
    6.6434  -13.7688    0.0000 C    0  0  0  0  0  0  0  0  0  0  0  0
   11.8063  -18.4337    0.0000 C    0  0  0  0  0  0  0  0  0  0  0  0
   13.5070  -19.3457    0.0000 C    0  0  0  0  0  0  0  0  0  0  0  0
   10.1660  -19.4507    0.0000 C    0  0  0  0  0  0  0  0  0  0  0  0
   13.5675  -21.2747    0.0000 C    0  0  0  0  0  0  0  0  0  0  0  0
   10.2266  -21.3795    0.0000 C    0  0  0  0  0  0  0  0  0  0  0  0
   11.9273  -22.2915    0.0000 C    0  0  0  0  0  0  0  0  0  0  0  0
   18.0431  -12.5148    0.0000 C    0  0  0  0  0  0  0  0  0  0  0  0
    7.5954  -18.9565    0.0000 C    0  0  0  0  0  0  0  0  0  0  0  0
   19.5654  -13.4602    0.0000 C    0  0  0  0  0  0  0  0  0  0  0  0
   21.0717  -12.0982    0.0000 C    0  0  0  0  0  0  0  0  0  0  0  0
    7.2589  -20.2384    0.0000 C    0  0  0  0  0  0  0  0  0  0  0  0
    5.8648  -19.9340    0.0000 C    0  0  0  0  0  0  0  0  0  0  0  0
    5.4482  -21.4563    0.0000 Sb   0  0  0  0  0  0  0  0  0  0  0  0
   22.4498  -13.2039    0.0000 Sb   0  0  0  0  0  0  0  0  0  0  0  0
   22.1565  -15.1113    0.0000 C    0  0  0  0  0  0  0  0  0  0  0  0
   23.6617  -16.3190    0.0000 C    0  0  0  0  0  0  0  0  0  0  0  0
   20.3579  -15.8111    0.0000 C    0  0  0  0  0  0  0  0  0  0  0  0
   23.3683  -18.2265    0.0000 C    0  0  0  0  0  0  0  0  0  0  0  0
   20.0646  -17.7184    0.0000 C    0  0  0  0  0  0  0  0  0  0  0  0
   21.5699  -18.9261    0.0000 C    0  0  0  0  0  0  0  0  0  0  0  0
   24.2483  -12.5041    0.0000 C    0  0  0  0  0  0  0  0  0  0  0  0
   24.5416  -10.5967    0.0000 C    0  0  0  0  0  0  0  0  0  0  0  0
   25.7536  -13.7119    0.0000 C    0  0  0  0  0  0  0  0  0  0  0  0
   26.3402   -9.8970    0.0000 C    0  0  0  0  0  0  0  0  0  0  0  0
   27.5521  -13.0121    0.0000 C    0  0  0  0  0  0  0  0  0  0  0  0
   27.8454  -11.1047    0.0000 C    0  0  0  0  0  0  0  0  0  0  0  0
    3.5815  -21.9458    0.0000 C    0  0  0  0  0  0  0  0  0  0  0  0
    3.0720  -23.8071    0.0000 C    0  0  0  0  0  0  0  0  0  0  0  0
    2.2241  -20.5739    0.0000 C    0  0  0  0  0  0  0  0  0  0  0  0
    1.2052  -24.2966    0.0000 C    0  0  0  0  0  0  0  0  0  0  0  0
    0.3574  -21.0634    0.0000 C    0  0  0  0  0  0  0  0  0  0  0  0
   -0.1520  -22.9247    0.0000 C    0  0  0  0  0  0  0  0  0  0  0  0
    6.8055  -22.8281    0.0000 C    0  0  0  0  0  0  0  0  0  0  0  0
    8.6722  -22.3386    0.0000 C    0  0  0  0  0  0  0  0  0  0  0  0
    6.2961  -24.6896    0.0000 C    0  0  0  0  0  0  0  0  0  0  0  0
   10.0295  -23.7107    0.0000 C    0  0  0  0  0  0  0  0  0  0  0  0
    7.6533  -26.0615    0.0000 C    0  0  0  0  0  0  0  0  0  0  0  0
    9.5200  -25.5720    0.0000 C    0  0  0  0  0  0  0  0  0  0  0  0
   27.7377  -19.5494    0.0000 Cl   0  5  0  0  0  0  0  0  0  0  0  0
  1  2  1  0  0  0  0
  1  3  1  0  0  0  0
  1  4  1  0  0  0  0
  1  5  1  0  0  0  0
  6  7  1  0  0  0  0
  6  8  2  0  0  0  0
  7  9  2  0  0  0  0
  8 10  1  0  0  0  0
  9 11  1  0  0  0  0
 10 11  2  0  0  0  0
  4  6  1  0  0  0  0
 12 13  1  0  0  0  0
 12 14  2  0  0  0  0
 13 15  2  0  0  0  0
 14 16  1  0  0  0  0
 15 17  1  0  0  0  0
 16 17  2  0  0  0  0
  4 12  1  0  0  0  0
 18 19  1  0  0  0  0
 18 20  2  0  0  0  0
 19 21  2  0  0  0  0
 20 22  1  0  0  0  0
 21 23  1  0  0  0  0
 22 23  2  0  0  0  0
  5 18  1  0  0  0  0
 24 25  1  0  0  0  0
 24 26  2  0  0  0  0
 25 27  2  0  0  0  0
 26 28  1  0  0  0  0
 27 29  1  0  0  0  0
 28 29  2  0  0  0  0
  5 24  1  0  0  0  0
  4 30  1  0  0  0  0
  5 31  1  0  0  0  0
 30 32  1  0  0  0  0
 32 33  1  0  0  0  0
 31 34  1  0  0  0  0
 34 35  1  0  0  0  0
 35 36  1  0  0  0  0
 33 37  1  0  0  0  0
 38 39  1  0  0  0  0
 38 40  2  0  0  0  0
 39 41  2  0  0  0  0
 40 42  1  0  0  0  0
 41 43  1  0  0  0  0
 42 43  2  0  0  0  0
 37 38  1  0  0  0  0
 44 45  1  0  0  0  0
 44 46  2  0  0  0  0
 45 47  2  0  0  0  0
 46 48  1  0  0  0  0
 47 49  1  0  0  0  0
 48 49  2  0  0  0  0
 37 44  1  0  0  0  0
 50 51  1  0  0  0  0
 50 52  2  0  0  0  0
 51 53  2  0  0  0  0
 52 54  1  0  0  0  0
 53 55  1  0  0  0  0
 54 55  2  0  0  0  0
 36 50  1  0  0  0  0
 56 57  1  0  0  0  0
 56 58  2  0  0  0  0
 57 59  2  0  0  0  0
 58 60  1  0  0  0  0
 59 61  1  0  0  0  0
 60 61  2  0  0  0  0
 36 56  1  0  0  0  0
M  END
> <NMREDATA_VERSION>
1.1

> <NMREDATA_LEVEL>
0

> <NMREDATA_SOLVENT>
CD2Cl2

> <NMREDATA_TEMPERATURE>
300

> <NMREDATA_FORMULA>
C54H55Cl3RhSb4

> <NMREDATA_SMILES>
Cl[Rh]([SbH](c1ccccc1)(c1ccccc1)CCC[Sb](c1ccccc1)c1ccccc1)([SbH](c1ccccc1)(c1ccccc1)CCC[Sb](c1ccccc1)c1ccccc1)Cl.Cl

> <NMREDATA_ASSIGNMENT>
Rh1, 2104.00, 1

> <NMREDATA_1D_103Rh>
2104.00, L=Rh1

$$$$

  ACD/LABS04032410482D

 32 32  0  0  0  0  0  0  0  0  2 V2000
   13.3481  -15.5113    0.0000 Rh   0  2  0  0  0  0  0  0  0  0  0  0
   12.2264  -13.9410    0.0000 Cl   0  0  0  0  0  0  0  0  0  0  0  0
   14.5980  -16.9855    0.0000 Cl   0  0  0  0  0  0  0  0  0  0  0  0
   14.8223  -14.5499    0.0000 Sb   0  5  0  0  0  0  0  0  0  0  0  0
   11.7457  -16.5048    0.0000 Sb   0  5  0  0  0  0  0  0  0  0  0  0
   16.5435  -15.4227    0.0000 C    0  0  0  0  0  0  0  0  0  0  0  0
   14.7176  -12.6229    0.0000 C    0  0  0  0  0  0  0  0  0  0  0  0
   10.0449  -15.5929    0.0000 C    0  0  0  0  0  0  0  0  0  0  0  0
   11.8063  -18.4337    0.0000 C    0  0  0  0  0  0  0  0  0  0  0  0
   16.4387  -13.4957    0.0000 C    0  0  0  0  0  0  0  0  0  0  0  0
   16.3340  -11.5687    0.0000 C    0  0  0  0  0  0  0  0  0  0  0  0
   18.1600  -14.3685    0.0000 C    0  0  0  0  0  0  0  0  0  0  0  0
   17.9506  -10.5145    0.0000 C    0  0  0  0  0  0  0  0  0  0  0  0
   19.7765  -13.3143    0.0000 C    0  0  0  0  0  0  0  0  0  0  0  0
   19.6717  -11.3873    0.0000 C    0  0  0  0  0  0  0  0  0  0  0  0
   10.1055  -17.5217    0.0000 C    0  0  0  0  0  0  0  0  0  0  0  0
   10.1661  -19.4506    0.0000 C    0  0  0  0  0  0  0  0  0  0  0  0
    8.4046  -16.6097    0.0000 C    0  0  0  0  0  0  0  0  0  0  0  0
    8.5258  -20.4675    0.0000 C    0  0  0  0  0  0  0  0  0  0  0  0
    6.7645  -17.6266    0.0000 C    0  0  0  0  0  0  0  0  0  0  0  0
    6.8251  -19.5555    0.0000 C    0  0  0  0  0  0  0  0  0  0  0  0
   18.7322  -15.5594    0.0000 Sb   0  0  0  0  0  0  0  0  0  0  0  0
   11.7136  -19.9981    0.0000 Sb   0  0  0  0  0  0  0  0  0  0  0  0
   20.4147  -15.5113    0.0000 C    0  0  0  0  0  0  0  0  0  0  0  0
   18.8123  -16.4728    0.0000 C    0  0  0  0  0  0  0  0  0  0  0  0
   12.3546  -21.2159    0.0000 C    0  0  0  0  0  0  0  0  0  0  0  0
   13.0276  -19.6295    0.0000 C    0  0  0  0  0  0  0  0  0  0  0  0
   25.1498  -13.4122    0.0000 B    0  5  0  0  0  0  0  0  0  0  0  0
   25.1498  -12.1943    0.0000 F    0  0  0  0  0  0  0  0  0  0  0  0
   26.3677  -13.4122    0.0000 F    0  0  0  0  0  0  0  0  0  0  0  0
   23.9320  -13.4122    0.0000 F    0  0  0  0  0  0  0  0  0  0  0  0
   25.1498  -14.6300    0.0000 F    0  0  0  0  0  0  0  0  0  0  0  0
  1  2  1  0  0  0  0
  1  3  1  0  0  0  0
  1  4  1  0  0  0  0
  1  5  1  0  0  0  0
  4  6  1  0  0  0  0
  4  7  1  0  0  0  0
  5  8  1  0  0  0  0
  5  9  1  0  0  0  0
 10 11  1  0  0  0  0
 10 12  2  0  0  0  0
 11 13  2  0  0  0  0
 12 14  1  0  0  0  0
 13 15  1  0  0  0  0
 14 15  2  0  0  0  0
  4 10  1  0  0  0  0
 16 17  1  0  0  0  0
 16 18  2  0  0  0  0
 17 19  2  0  0  0  0
 18 20  1  0  0  0  0
 19 21  1  0  0  0  0
 20 21  2  0  0  0  0
  5 16  1  0  0  0  0
 12 22  1  0  0  0  0
 17 23  1  0  0  0  0
 22 24  1  0  0  0  0
 22 25  1  0  0  0  0
 23 26  1  0  0  0  0
 23 27  1  0  0  0  0
 28 29  1  0  0  0  0
 28 30  1  0  0  0  0
 28 31  1  0  0  0  0
 28 32  1  0  0  0  0
M  END
> <NMREDATA_VERSION>
1.1

> <NMREDATA_LEVEL>
0

> <NMREDATA_SOLVENT>
DMF-d7

> <NMREDATA_TEMPERATURE>
300

> <NMREDATA_FORMULA>
C20H34BCl2F4RhSb4

> <NMREDATA_SMILES>
F[B](F)(F)F.C[Sb](c1ccccc1[SbH]([Rh]([SbH](c1ccccc1[Sb](C)C)(C)C)(Cl)Cl)(C)C)C

> <NMREDATA_ASSIGNMENT>
Rh1, 2165.00, 1

> <NMREDATA_1D_103Rh>
2165.00, L=Rh1

$$$$

  ACD/LABS04032410492D

  7  6  0  0  0  0  0  0  0  0  2 V2000
   14.5018  -15.3431    0.0000 Rh   0  7  0  0  0  0  0  0  0  0  0  0
   13.1002  -14.5339    0.0000 Br   0  0  0  0  0  0  0  0  0  0  0  0
   14.5018  -13.7246    0.0000 Br   0  0  0  0  0  0  0  0  0  0  0  0
   15.9034  -14.5339    0.0000 Br   0  0  0  0  0  0  0  0  0  0  0  0
   14.5018  -16.9615    0.0000 Br   0  0  0  0  0  0  0  0  0  0  0  0
   13.1002  -16.1523    0.0000 Br   0  0  0  0  0  0  0  0  0  0  0  0
   15.9034  -16.1523    0.0000 Br   0  0  0  0  0  0  0  0  0  0  0  0
  1  2  1  0  0  0  0
  1  3  1  0  0  0  0
  1  4  1  0  0  0  0
  1  5  1  0  0  0  0
  1  6  1  0  0  0  0
  1  7  1  0  0  0  0
M  END
> <NMREDATA_VERSION>
1.1

> <NMREDATA_LEVEL>
0

> <NMREDATA_SOLVENT>
HBr (aq)

> <NMREDATA_TEMPERATURE>
313

> <NMREDATA_FORMULA>
Br6Rh

> <NMREDATA_SMILES>
Br[Rh](Br)(Br)(Br)(Br)Br

> <NMREDATA_ASSIGNMENT>
Rh1, 7077.00, 1

> <NMREDATA_1D_103Rh>
7077.00, L=Rh1

$$$$

  ACD/LABS04032410492D

  7  6  0  0  0  0  0  0  0  0  2 V2000
   14.5018  -15.3431    0.0000 Rh   0  7  0  0  0  0  0  0  0  0  0  0
   13.1002  -14.5339    0.0000 Br   0  0  0  0  0  0  0  0  0  0  0  0
   14.5018  -13.7246    0.0000 Br   0  0  0  0  0  0  0  0  0  0  0  0
   15.9034  -14.5339    0.0000 Br   0  0  0  0  0  0  0  0  0  0  0  0
   14.5018  -16.9615    0.0000 Br   0  0  0  0  0  0  0  0  0  0  0  0
   13.1002  -16.1523    0.0000 Br   0  0  0  0  0  0  0  0  0  0  0  0
   15.9034  -16.1523    0.0000 Br   0  0  0  0  0  0  0  0  0  0  0  0
  1  2  1  0  0  0  0
  1  3  1  0  0  0  0
  1  4  1  0  0  0  0
  1  5  1  0  0  0  0
  1  6  1  0  0  0  0
  1  7  1  0  0  0  0
M  END
> <NMREDATA_VERSION>
1.1

> <NMREDATA_LEVEL>
0

> <NMREDATA_SOLVENT>
HBr (aq)

> <NMREDATA_TEMPERATURE>
276

> <NMREDATA_FORMULA>
Br6Rh

> <NMREDATA_SMILES>
Br[Rh](Br)(Br)(Br)(Br)Br

> <NMREDATA_ASSIGNMENT>
Rh1, 7007.00, 1

> <NMREDATA_1D_103Rh>
7007.00, L=Rh1

$$$$

  ACD/LABS04032410492D

  7  6  0  0  0  0  0  0  0  0  2 V2000
   14.5018  -15.3431    0.0000 Rh   0  7  0  0  0  0  0  0  0  0  0  0
   13.1002  -14.5339    0.0000 Br   0  0  0  0  0  0  0  0  0  0  0  0
   14.5018  -13.7246    0.0000 Br   0  0  0  0  0  0  0  0  0  0  0  0
   15.9034  -14.5339    0.0000 Br   0  0  0  0  0  0  0  0  0  0  0  0
   14.5018  -16.9615    0.0000 Br   0  0  0  0  0  0  0  0  0  0  0  0
   13.1002  -16.1523    0.0000 Br   0  0  0  0  0  0  0  0  0  0  0  0
   15.9034  -16.1523    0.0000 Br   0  0  0  0  0  0  0  0  0  0  0  0
  1  2  1  0  0  0  0
  1  3  1  0  0  0  0
  1  4  1  0  0  0  0
  1  5  1  0  0  0  0
  1  6  1  0  0  0  0
  1  7  1  0  0  0  0
M  END
> <NMREDATA_VERSION>
1.1

> <NMREDATA_LEVEL>
0

> <NMREDATA_SOLVENT>
HBr (aq)

> <NMREDATA_TEMPERATURE>
243

> <NMREDATA_FORMULA>
Br6Rh

> <NMREDATA_SMILES>
Br[Rh](Br)(Br)(Br)(Br)Br

> <NMREDATA_ASSIGNMENT>
Rh1, 6924.00, 1

> <NMREDATA_1D_103Rh>
6924.00, L=Rh1

$$$$

  ACD/LABS04032411172D

 34 32  0  0  0  0  0  0  0  0  2 V2000
   14.5980  -15.3190    0.0000 Rh   0  0  0  0  0  0  0  0  0  0  0  0
   13.7006  -16.9695    0.0000 S    0  3  0  0  0  0  0  0  0  0  0  0
   12.7231  -15.7677    0.0000 S    0  3  0  0  0  0  0  0  0  0  0  0
   15.7517  -17.0657    0.0000 S    0  3  0  0  0  0  0  0  0  0  0  0
   16.8894  -15.6075    0.0000 S    0  3  0  0  0  0  0  0  0  0  0  0
   14.1653  -17.9149    0.0000 C    0  0  0  0  0  0  0  0  0  0  0  0
   12.7231  -17.5945    0.0000 C    0  0  0  0  0  0  0  0  0  0  0  0
   12.6430  -16.5849    0.0000 C    0  0  0  0  0  0  0  0  0  0  0  0
   11.7136  -15.8799    0.0000 C    0  0  0  0  0  0  0  0  0  0  0  0
   16.1683  -17.7227    0.0000 C    0  0  0  0  0  0  0  0  0  0  0  0
   16.5048  -17.0336    0.0000 C    0  0  0  0  0  0  0  0  0  0  0  0
   17.7227  -16.3446    0.0000 C    0  0  0  0  0  0  0  0  0  0  0  0
   17.4663  -15.1428    0.0000 C    0  0  0  0  0  0  0  0  0  0  0  0
   13.7166  -13.5083    0.0000 Br   0  0  0  0  0  0  0  0  0  0  0  0
   12.6430  -14.6300    0.0000 Br   0  0  0  0  0  0  0  0  0  0  0  0
   15.5915  -13.6045    0.0000 Br   0  0  0  0  0  0  0  0  0  0  0  0
   16.8894  -14.4057    0.0000 Br   0  0  0  0  0  0  0  0  0  0  0  0
   24.1643  -14.5419    0.0000 N    0  3  0  0  0  0  0  0  0  0  0  0
   23.6664  -13.6732    0.0000 C    0  0  0  0  0  0  0  0  0  0  0  0
   22.6592  -13.6729    0.0000 C    0  0  0  0  0  0  0  0  0  0  0  0
   22.1518  -12.8066    0.0000 C    0  0  0  0  0  0  0  0  0  0  0  0
   21.1481  -12.8005    0.0000 C    0  0  0  0  0  0  0  0  0  0  0  0
   25.0271  -14.0406    0.0000 C    0  0  0  0  0  0  0  0  0  0  0  0
   25.0334  -13.0367    0.0000 C    0  0  0  0  0  0  0  0  0  0  0  0
   25.8996  -12.5293    0.0000 C    0  0  0  0  0  0  0  0  0  0  0  0
   25.9058  -11.5256    0.0000 C    0  0  0  0  0  0  0  0  0  0  0  0
   23.3015  -15.0432    0.0000 C    0  0  0  0  0  0  0  0  0  0  0  0
   23.2953  -16.0471    0.0000 C    0  0  0  0  0  0  0  0  0  0  0  0
   22.4290  -16.5544    0.0000 C    0  0  0  0  0  0  0  0  0  0  0  0
   22.4229  -17.5581    0.0000 C    0  0  0  0  0  0  0  0  0  0  0  0
   24.6656  -15.4047    0.0000 C    0  0  0  0  0  0  0  0  0  0  0  0
   25.6695  -15.4109    0.0000 C    0  0  0  0  0  0  0  0  0  0  0  0
   26.1769  -16.2772    0.0000 C    0  0  0  0  0  0  0  0  0  0  0  0
   27.1806  -16.2833    0.0000 C    0  0  0  0  0  0  0  0  0  0  0  0
  1  2  1  0  0  0  0
  1  3  1  0  0  0  0
  1  4  1  0  0  0  0
  1  5  1  0  0  0  0
  2  6  1  0  0  0  0
  2  7  1  0  0  0  0
  3  8  1  0  0  0  0
  3  9  1  0  0  0  0
  4 10  1  0  0  0  0
  4 11  1  0  0  0  0
  5 12  1  0  0  0  0
  5 13  1  0  0  0  0
  1 14  1  0  0  0  0
  1 15  1  0  0  0  0
  1 16  1  0  0  0  0
  1 17  1  0  0  0  0
 18 19  1  0  0  0  0
 19 20  1  0  0  0  0
 20 21  1  0  0  0  0
 21 22  1  0  0  0  0
 18 23  1  0  0  0  0
 23 24  1  0  0  0  0
 24 25  1  0  0  0  0
 25 26  1  0  0  0  0
 18 27  1  0  0  0  0
 27 28  1  0  0  0  0
 28 29  1  0  0  0  0
 29 30  1  0  0  0  0
 18 31  1  0  0  0  0
 31 32  1  0  0  0  0
 32 33  1  0  0  0  0
 33 34  1  0  0  0  0
M  END
> <NMREDATA_VERSION>
1.1

> <NMREDATA_LEVEL>
0

> <NMREDATA_SOLVENT>
CD2Cl2

> <NMREDATA_FORMULA>
C24H65Br4NRhS4

> <NMREDATA_SMILES>
CS([Rh](S(C)C)(S(C)C)(S(C)C)(Br)(Br)(Br)Br)C.CCCCN(CCCC)(CCCC)CCCC

> <NMREDATA_ASSIGNMENT>
Rh1, 4339.00, 1

> <NMREDATA_1D_103Rh>
4339.00, L=Rh1

$$$$

  ACD/LABS04032411182D

 34 32  0  0  0  0  0  0  0  0  2 V2000
   14.5980  -15.3190    0.0000 Rh   0  0  0  0  0  0  0  0  0  0  0  0
   13.7006  -16.9695    0.0000 S    0  3  0  0  0  0  0  0  0  0  0  0
   12.7231  -15.7677    0.0000 S    0  3  0  0  0  0  0  0  0  0  0  0
   17.4342  -13.9890    0.0000 S    0  3  0  0  0  0  0  0  0  0  0  0
   15.2710  -13.9570    0.0000 S    0  3  0  0  0  0  0  0  0  0  0  0
   14.1653  -17.9149    0.0000 C    0  0  0  0  0  0  0  0  0  0  0  0
   12.7231  -17.5945    0.0000 C    0  0  0  0  0  0  0  0  0  0  0  0
   12.6430  -16.5849    0.0000 C    0  0  0  0  0  0  0  0  0  0  0  0
   11.7136  -15.8799    0.0000 C    0  0  0  0  0  0  0  0  0  0  0  0
   18.8764  -14.6140    0.0000 C    0  0  0  0  0  0  0  0  0  0  0  0
   18.4918  -13.2680    0.0000 C    0  0  0  0  0  0  0  0  0  0  0  0
   16.4087  -12.9154    0.0000 C    0  0  0  0  0  0  0  0  0  0  0  0
   15.2870  -11.6655    0.0000 C    0  0  0  0  0  0  0  0  0  0  0  0
   13.7166  -13.5083    0.0000 Br   0  0  0  0  0  0  0  0  0  0  0  0
   12.6430  -14.6300    0.0000 Br   0  0  0  0  0  0  0  0  0  0  0  0
   15.5915  -16.6971    0.0000 Br   0  0  0  0  0  0  0  0  0  0  0  0
   16.1042  -15.8959    0.0000 Br   0  0  0  0  0  0  0  0  0  0  0  0
   24.1643  -14.5419    0.0000 N    0  3  0  0  0  0  0  0  0  0  0  0
   23.6664  -13.6732    0.0000 C    0  0  0  0  0  0  0  0  0  0  0  0
   22.6592  -13.6729    0.0000 C    0  0  0  0  0  0  0  0  0  0  0  0
   22.1518  -12.8066    0.0000 C    0  0  0  0  0  0  0  0  0  0  0  0
   21.1481  -12.8005    0.0000 C    0  0  0  0  0  0  0  0  0  0  0  0
   25.0271  -14.0406    0.0000 C    0  0  0  0  0  0  0  0  0  0  0  0
   25.0334  -13.0367    0.0000 C    0  0  0  0  0  0  0  0  0  0  0  0
   25.8996  -12.5293    0.0000 C    0  0  0  0  0  0  0  0  0  0  0  0
   25.9058  -11.5256    0.0000 C    0  0  0  0  0  0  0  0  0  0  0  0
   23.3015  -15.0432    0.0000 C    0  0  0  0  0  0  0  0  0  0  0  0
   23.2953  -16.0471    0.0000 C    0  0  0  0  0  0  0  0  0  0  0  0
   22.4290  -16.5544    0.0000 C    0  0  0  0  0  0  0  0  0  0  0  0
   22.4229  -17.5581    0.0000 C    0  0  0  0  0  0  0  0  0  0  0  0
   24.6656  -15.4047    0.0000 C    0  0  0  0  0  0  0  0  0  0  0  0
   25.6695  -15.4109    0.0000 C    0  0  0  0  0  0  0  0  0  0  0  0
   26.1769  -16.2772    0.0000 C    0  0  0  0  0  0  0  0  0  0  0  0
   27.1806  -16.2833    0.0000 C    0  0  0  0  0  0  0  0  0  0  0  0
  1  2  1  0  0  0  0
  1  3  1  0  0  0  0
  1  4  1  0  0  0  0
  1  5  1  0  0  0  0
  2  6  1  0  0  0  0
  2  7  1  0  0  0  0
  3  8  1  0  0  0  0
  3  9  1  0  0  0  0
  4 10  1  0  0  0  0
  4 11  1  0  0  0  0
  5 12  1  0  0  0  0
  5 13  1  0  0  0  0
  1 14  1  0  0  0  0
  1 15  1  0  0  0  0
  1 16  1  0  0  0  0
  1 17  1  0  0  0  0
 18 19  1  0  0  0  0
 19 20  1  0  0  0  0
 20 21  1  0  0  0  0
 21 22  1  0  0  0  0
 18 23  1  0  0  0  0
 23 24  1  0  0  0  0
 24 25  1  0  0  0  0
 25 26  1  0  0  0  0
 18 27  1  0  0  0  0
 27 28  1  0  0  0  0
 28 29  1  0  0  0  0
 29 30  1  0  0  0  0
 18 31  1  0  0  0  0
 31 32  1  0  0  0  0
 32 33  1  0  0  0  0
 33 34  1  0  0  0  0
M  END
> <NMREDATA_VERSION>
1.1

> <NMREDATA_LEVEL>
0

> <NMREDATA_SOLVENT>
CD2Cl2

> <NMREDATA_FORMULA>
C24H65Br4NRhS4

> <NMREDATA_SMILES>
CS([Rh](S(C)C)(S(C)C)(S(C)C)(Br)(Br)(Br)Br)C.CCCCN(CCCC)(CCCC)CCCC

> <NMREDATA_ASSIGNMENT>
Rh1, 4532.00, 1

> <NMREDATA_1D_103Rh>
4532.00, L=Rh1

$$$$

  ACD/LABS04032411182D

 13 12  0  0  0  0  0  0  0  0  1 V2000
   14.5980  -15.3190    0.0000 Rh   0  0  0  0  0  0  0  0  0  0  0  0
   13.7006  -16.9695    0.0000 S    0  0  0  0  0  0  0  0  0  0  0  0
   12.7231  -15.7677    0.0000 S    0  0  0  0  0  0  0  0  0  0  0  0
   16.4728  -14.9505    0.0000 S    0  0  0  0  0  0  0  0  0  0  0  0
   14.1653  -17.9149    0.0000 C    0  0  0  0  0  0  0  0  0  0  0  0
   12.7231  -17.5945    0.0000 C    0  0  0  0  0  0  0  0  0  0  0  0
   12.6430  -16.5849    0.0000 C    0  0  0  0  0  0  0  0  0  0  0  0
   11.7136  -15.8799    0.0000 C    0  0  0  0  0  0  0  0  0  0  0  0
   17.7707  -14.5018    0.0000 C    0  0  0  0  0  0  0  0  0  0  0  0
   17.1778  -13.0276    0.0000 C    0  0  0  0  0  0  0  0  0  0  0  0
   13.7166  -13.5083    0.0000 Br   0  0  0  0  0  0  0  0  0  0  0  0
   12.6430  -14.6300    0.0000 Br   0  0  0  0  0  0  0  0  0  0  0  0
   15.5915  -16.6971    0.0000 Br   0  0  0  0  0  0  0  0  0  0  0  0
  1  2  1  0  0  0  0
  1  3  1  0  0  0  0
  1  4  1  0  0  0  0
  2  5  1  0  0  0  0
  2  6  1  0  0  0  0
  3  7  1  0  0  0  0
  3  8  1  0  0  0  0
  4  9  1  0  0  0  0
  4 10  1  0  0  0  0
  1 11  1  0  0  0  0
  1 12  1  0  0  0  0
  1 13  1  0  0  0  0
M  END
> <NMREDATA_VERSION>
1.1

> <NMREDATA_LEVEL>
0

> <NMREDATA_SOLVENT>
CD2Cl2

> <NMREDATA_FORMULA>
C6H21Br3RhS3

> <NMREDATA_SMILES>
CS([Rh](S(C)C)(S(C)C)(Br)(Br)Br)C

> <NMREDATA_ASSIGNMENT>
Rh1, 3437.00, 1

> <NMREDATA_1D_103Rh>
3437.00, L=Rh1

$$$$

  ACD/LABS04032413372D

 19 17  0  0  0  0  0  0  0  0  2 V2000
   15.6075  -13.5083    0.0000 S    0  0  0  0  0  0  0  0  0  0  0  0
   16.3606  -12.0501    0.0000 C    0  0  0  0  0  0  0  0  0  0  0  0
   15.3511  -12.0181    0.0000 C    0  0  0  0  0  0  0  0  0  0  0  0
   14.5980  -15.3190    0.0000 Rh   0  5  0  0  0  0  0  0  0  0  0  0
   13.7006  -16.9695    0.0000 S    0  0  0  0  0  0  0  0  0  0  0  0
   12.7231  -15.7677    0.0000 S    0  3  0  0  0  0  0  0  0  0  0  0
   16.4728  -14.9505    0.0000 S    0  3  0  0  0  0  0  0  0  0  0  0
   14.1653  -17.9149    0.0000 C    0  0  0  0  0  0  0  0  0  0  0  0
   12.7231  -17.5945    0.0000 C    0  0  0  0  0  0  0  0  0  0  0  0
   12.6430  -16.5849    0.0000 C    0  0  0  0  0  0  0  0  0  0  0  0
   11.7136  -15.8799    0.0000 C    0  0  0  0  0  0  0  0  0  0  0  0
   17.7707  -14.5018    0.0000 C    0  0  0  0  0  0  0  0  0  0  0  0
   17.1778  -13.0276    0.0000 C    0  0  0  0  0  0  0  0  0  0  0  0
   12.6430  -14.6300    0.0000 Br   0  0  0  0  0  0  0  0  0  0  0  0
   16.1683  -16.2965    0.0000 Br   0  0  0  0  0  0  0  0  0  0  0  0
   26.1874  -12.5469    0.0000 N    0  0  0  0  0  0  0  0  0  0  0  0
   26.8524  -13.6987    0.0000 O    0  5  0  0  0  0  0  0  0  0  0  0
   26.8524  -11.3951    0.0000 O    0  0  0  0  0  0  0  0  0  0  0  0
   24.6931  -12.1783    0.0000 O    0  0  0  0  0  0  0  0  0  0  0  0
  1  2  1  0  0  0  0
  1  3  1  0  0  0  0
  4  5  1  0  0  0  0
  4  6  1  0  0  0  0
  4  7  1  0  0  0  0
  5  8  1  0  0  0  0
  5  9  1  0  0  0  0
  6 10  1  0  0  0  0
  6 11  1  0  0  0  0
  7 12  1  0  0  0  0
  7 13  1  0  0  0  0
  4 14  1  0  0  0  0
  4 15  1  0  0  0  0
  1  4  1  0  0  0  0
 16 17  1  0  0  0  0
 16 18  2  0  0  0  0
 16 19  2  0  0  0  0
M  END
> <NMREDATA_VERSION>
1.1

> <NMREDATA_LEVEL>
0

> <NMREDATA_SOLVENT>
nitromethane

> <NMREDATA_FORMULA>
C8H29Br2NO3RhS4

> <NMREDATA_SMILES>
CS([Rh](S(C)C)(S(C)C)(S(C)C)(Br)Br)C.ON(=O)=O

> <NMREDATA_ASSIGNMENT>
Rh4, 2756.00, 4

> <NMREDATA_1D_103Rh>
2756.00, L=Rh4

$$$$

  ACD/LABS04032413382D

 18 17  0  0  0  0  0  0  0  0  1 V2000
   14.4476  -13.9356    0.0000 C    0  0  0  0  0  0  0  0  0  0  0  0
   13.6064  -12.4784    0.0000 C    0  0  0  0  0  0  0  0  0  0  0  0
   15.5735  -12.6852    0.0000 C    0  0  0  0  0  0  0  0  0  0  0  0
   15.9847  -14.6199    0.0000 C    0  0  0  0  0  0  0  0  0  0  0  0
   14.2718  -15.6089    0.0000 C    0  0  0  0  0  0  0  0  0  0  0  0
   17.2192  -13.0350    0.0000 As   0  0  0  0  0  0  0  0  0  0  0  0
   17.3459  -13.6309    0.0000 As   0  0  0  0  0  0  0  0  0  0  0  0
   15.6330  -16.5978    0.0000 As   0  0  0  0  0  0  0  0  0  0  0  0
   18.3451  -11.7847    0.0000 C    0  0  0  0  0  0  0  0  0  0  0  0
   17.7392  -14.6352    0.0000 C    0  0  0  0  0  0  0  0  0  0  0  0
   17.1700  -11.9576    0.0000 C    0  0  0  0  0  0  0  0  0  0  0  0
   18.8830  -14.3153    0.0000 C    0  0  0  0  0  0  0  0  0  0  0  0
   17.1700  -15.9135    0.0000 C    0  0  0  0  0  0  0  0  0  0  0  0
   15.4571  -18.2712    0.0000 C    0  0  0  0  0  0  0  0  0  0  0  0
   12.8019  -14.2854    0.0000 Rh   0  0  0  0  0  0  0  0  0  0  0  0
   12.4521  -12.6396    0.0000 Br   0  0  0  0  0  0  0  0  0  0  0  0
   13.1517  -15.9311    0.0000 Br   0  0  0  0  0  0  0  0  0  0  0  0
   11.1561  -14.6352    0.0000 Br   0  0  0  0  0  0  0  0  0  0  0  0
  1  2  1  0  0  0  0
  1  3  1  0  0  0  0
  1  4  1  0  0  0  0
  1  5  1  0  0  0  0
  3  6  1  0  0  0  0
  4  7  1  0  0  0  0
  5  8  1  0  0  0  0
  6  9  1  0  0  0  0
  6 10  1  0  0  0  0
  7 11  1  0  0  0  0
  7 12  1  0  0  0  0
  8 13  1  0  0  0  0
  8 14  1  0  0  0  0
 15 16  1  0  0  0  0
 15 17  1  0  0  0  0
 15 18  1  0  0  0  0
  1 15  1  0  0  0  0
M  END
> <NMREDATA_VERSION>
1.1

> <NMREDATA_LEVEL>
0

> <NMREDATA_SOLVENT>
DMF-d7

> <NMREDATA_TEMPERATURE>
300

> <NMREDATA_FORMULA>
C11H27As3Br3Rh

> <NMREDATA_SMILES>
C[As](C[C]([Rh](Br)(Br)Br)(C[As](C)C)(C[As](C)C)C)C

> <NMREDATA_ASSIGNMENT>
Rh15, 1792.00, 15

> <NMREDATA_1D_103Rh>
1792.00, L=Rh15

$$$$

  ACD/LABS04032413432D

 42 44  0  0  0  0  0  0  0  0  2 V2000
   12.7392  -10.2714    0.0000 Br   0  5  0  0  0  0  0  0  0  0  0  0
   14.2564  -12.6898    0.0000 C    0  0  0  0  0  0  0  0  0  0  0  0
   15.1140  -11.6822    0.0000 C    0  0  0  0  0  0  0  0  0  0  0  0
   14.7088  -13.9423    0.0000 C    0  0  0  0  0  0  0  0  0  0  0  0
   16.4207  -11.9153    0.0000 C    0  0  0  0  0  0  0  0  0  0  0  0
   16.0153  -14.1753    0.0000 C    0  0  0  0  0  0  0  0  0  0  0  0
   16.8651  -13.1636    0.0000 C    0  0  0  0  0  0  0  0  0  0  0  0
   13.6858  -14.7930    0.0000 As   0  0  0  0  0  0  0  0  0  0  0  0
   12.4363  -14.3374    0.0000 C    0  0  0  0  0  0  0  0  0  0  0  0
   13.9176  -16.0916    0.0000 C    0  0  0  0  0  0  0  0  0  0  0  0
   19.9620  -15.4830    0.0000 C    0  0  0  0  0  0  0  0  0  0  0  0
   20.1964  -16.7940    0.0000 C    0  0  0  0  0  0  0  0  0  0  0  0
   18.7243  -15.0239    0.0000 C    0  0  0  0  0  0  0  0  0  0  0  0
   19.1783  -17.6369    0.0000 C    0  0  0  0  0  0  0  0  0  0  0  0
   17.7015  -15.8748    0.0000 C    0  0  0  0  0  0  0  0  0  0  0  0
   17.9288  -17.1813    0.0000 C    0  0  0  0  0  0  0  0  0  0  0  0
   18.9498  -13.7128    0.0000 As   0  0  0  0  0  0  0  0  0  0  0  0
   17.9260  -12.8662    0.0000 C    0  0  0  0  0  0  0  0  0  0  0  0
   20.1948  -13.2564    0.0000 C    0  0  0  0  0  0  0  0  0  0  0  0
   16.4520  -15.4192    0.0000 As   0  0  0  0  0  0  0  0  0  0  0  0
   11.0203  -17.4447    0.0000 C    0  0  0  0  0  0  0  0  0  0  0  0
   10.7859  -16.1338    0.0000 C    0  0  0  0  0  0  0  0  0  0  0  0
   12.2625  -17.8962    0.0000 C    0  0  0  0  0  0  0  0  0  0  0  0
   11.8086  -15.2829    0.0000 C    0  0  0  0  0  0  0  0  0  0  0  0
   13.2852  -17.0453    0.0000 C    0  0  0  0  0  0  0  0  0  0  0  0
   13.0581  -15.7386    0.0000 C    0  0  0  0  0  0  0  0  0  0  0  0
   12.2622  -19.2246    0.0000 As   0  0  0  0  0  0  0  0  0  0  0  0
   13.5761  -19.0021    0.0000 C    0  0  0  0  0  0  0  0  0  0  0  0
   11.1118  -19.8891    0.0000 C    0  0  0  0  0  0  0  0  0  0  0  0
   15.2250  -20.7309    0.0000 C    0  0  0  0  0  0  0  0  0  0  0  0
   16.5614  -20.7358    0.0000 C    0  0  0  0  0  0  0  0  0  0  0  0
   14.5725  -19.5774    0.0000 C    0  0  0  0  0  0  0  0  0  0  0  0
   17.2253  -19.5859    0.0000 C    0  0  0  0  0  0  0  0  0  0  0  0
   15.2441  -18.4318    0.0000 C    0  0  0  0  0  0  0  0  0  0  0  0
   16.5682  -18.4398    0.0000 C    0  0  0  0  0  0  0  0  0  0  0  0
   13.2663  -19.8044    0.0000 As   0  0  0  0  0  0  0  0  0  0  0  0
   12.8219  -18.5561    0.0000 C    0  0  0  0  0  0  0  0  0  0  0  0
   12.8030  -21.0495    0.0000 C    0  0  0  0  0  0  0  0  0  0  0  0
   14.5919  -17.2784    0.0000 As   0  0  0  0  0  0  0  0  0  0  0  0
   15.4450  -16.2787    0.0000 Rh   0  3  0  0  0  0  0  0  0  0  0  0
   16.2967  -17.2812    0.0000 Br   0  0  0  0  0  0  0  0  0  0  0  0
   14.5941  -15.2560    0.0000 Br   0  0  0  0  0  0  0  0  0  0  0  0
  2  3  1  0  0  0  0
  2  4  2  0  0  0  0
  3  5  2  0  0  0  0
  4  6  1  0  0  0  0
  5  7  1  0  0  0  0
  6  7  2  0  0  0  0
  4  8  1  0  0  0  0
  8  9  1  0  0  0  0
  8 10  1  0  0  0  0
 11 12  1  0  0  0  0
 11 13  2  0  0  0  0
 12 14  2  0  0  0  0
 13 15  1  0  0  0  0
 14 16  1  0  0  0  0
 15 16  2  0  0  0  0
 13 17  1  0  0  0  0
 17 18  1  0  0  0  0
 17 19  1  0  0  0  0
 15 20  1  0  0  0  0
  6 20  1  0  0  0  0
 21 22  1  0  0  0  0
 21 23  2  0  0  0  0
 22 24  2  0  0  0  0
 23 25  1  0  0  0  0
 24 26  1  0  0  0  0
 25 26  2  0  0  0  0
 23 27  1  0  0  0  0
 27 28  1  0  0  0  0
 27 29  1  0  0  0  0
 30 31  1  0  0  0  0
 30 32  2  0  0  0  0
 31 33  2  0  0  0  0
 32 34  1  0  0  0  0
 33 35  1  0  0  0  0
 34 35  2  0  0  0  0
 32 36  1  0  0  0  0
 36 37  1  0  0  0  0
 36 38  1  0  0  0  0
 34 39  1  0  0  0  0
 40 41  1  0  0  0  0
 40 42  1  0  0  0  0
 39 40  1  0  0  0  0
 25 39  1  0  0  0  0
 20 40  1  0  0  0  0
M  END
> <NMREDATA_VERSION>
1.1

> <NMREDATA_LEVEL>
0

> <NMREDATA_SOLVENT>
DMF-d7

> <NMREDATA_TEMPERATURE>
300

> <NMREDATA_FORMULA>
C32H41As6Br3Rh

> <NMREDATA_SMILES>
C[As](c1ccccc1[As]([Rh]([As](c1ccccc1[As](C)C)c1ccccc1[As](C)C)(Br)Br)c1ccccc1[As](C)C)C.Br

> <NMREDATA_ASSIGNMENT>
Rh40, 750.00, 40

> <NMREDATA_1D_103Rh>
750.00, L=Rh40

$$$$

  ACD/LABS04032413462D

 62 68  0  0  0  0  0  0  0  0  2 V2000
   13.5083  -14.6781    0.0000 Rh   0  5  0  0  0  0  0  0  0  0  0  0
   12.4347  -13.5083    0.0000 Br   0  0  0  0  0  0  0  0  0  0  0  0
   14.7902  -16.1202    0.0000 Br   0  0  0  0  0  0  0  0  0  0  0  0
   14.9665  -13.7807    0.0000 Sb   0  3  0  0  0  0  0  0  0  0  0  0
   11.6976  -16.0722    0.0000 Sb   0  3  0  0  0  0  0  0  0  0  0  0
   16.4727  -14.5949    0.0000 C    0  0  0  0  0  0  0  0  0  0  0  0
   17.9309  -13.6976    0.0000 C    0  0  0  0  0  0  0  0  0  0  0  0
   16.5208  -16.3065    0.0000 C    0  0  0  0  0  0  0  0  0  0  0  0
   19.4372  -14.5118    0.0000 C    0  0  0  0  0  0  0  0  0  0  0  0
   18.0270  -17.1206    0.0000 C    0  0  0  0  0  0  0  0  0  0  0  0
   19.4852  -16.2233    0.0000 C    0  0  0  0  0  0  0  0  0  0  0  0
   14.9185  -12.0692    0.0000 C    0  0  0  0  0  0  0  0  0  0  0  0
   13.4123  -11.2550    0.0000 C    0  0  0  0  0  0  0  0  0  0  0  0
   16.3767  -11.1718    0.0000 C    0  0  0  0  0  0  0  0  0  0  0  0
   13.3643   -9.5434    0.0000 C    0  0  0  0  0  0  0  0  0  0  0  0
   16.3287   -9.4603    0.0000 C    0  0  0  0  0  0  0  0  0  0  0  0
   14.8225   -8.6461    0.0000 C    0  0  0  0  0  0  0  0  0  0  0  0
   10.1147  -15.4195    0.0000 C    0  0  0  0  0  0  0  0  0  0  0  0
    8.7580  -16.4640    0.0000 C    0  0  0  0  0  0  0  0  0  0  0  0
    9.8884  -13.7223    0.0000 C    0  0  0  0  0  0  0  0  0  0  0  0
    7.1750  -15.8113    0.0000 C    0  0  0  0  0  0  0  0  0  0  0  0
    8.3055  -13.0696    0.0000 C    0  0  0  0  0  0  0  0  0  0  0  0
    6.9488  -14.1141    0.0000 C    0  0  0  0  0  0  0  0  0  0  0  0
   11.9238  -17.7693    0.0000 C    0  0  0  0  0  0  0  0  0  0  0  0
   13.5067  -18.4220    0.0000 C    0  0  0  0  0  0  0  0  0  0  0  0
   10.5671  -18.8139    0.0000 C    0  0  0  0  0  0  0  0  0  0  0  0
   13.7329  -20.1193    0.0000 C    0  0  0  0  0  0  0  0  0  0  0  0
   10.7934  -20.5111    0.0000 C    0  0  0  0  0  0  0  0  0  0  0  0
   12.3763  -21.1638    0.0000 C    0  0  0  0  0  0  0  0  0  0  0  0
   16.5689  -12.7392    0.0000 C    0  0  0  0  0  0  0  0  0  0  0  0
   17.4663  -13.3000    0.0000 C    0  0  0  0  0  0  0  0  0  0  0  0
   19.1648  -12.3866    0.0000 C    0  0  0  0  0  0  0  0  0  0  0  0
   10.5439  -16.3446    0.0000 C    0  0  0  0  0  0  0  0  0  0  0  0
   10.2394  -17.6906    0.0000 C    0  0  0  0  0  0  0  0  0  0  0  0
    8.7812  -17.7227    0.0000 C    0  0  0  0  0  0  0  0  0  0  0  0
   20.6390  -13.1878    0.0000 Sb   0  0  0  0  0  0  0  0  0  0  0  0
    8.1723  -18.8443    0.0000 Sb   0  0  0  0  0  0  0  0  0  0  0  0
   22.0993  -12.2938    0.0000 C    0  0  0  0  0  0  0  0  0  0  0  0
   22.0552  -10.5822    0.0000 C    0  0  0  0  0  0  0  0  0  0  0  0
   23.6038  -13.1114    0.0000 C    0  0  0  0  0  0  0  0  0  0  0  0
   23.5155   -9.6882    0.0000 C    0  0  0  0  0  0  0  0  0  0  0  0
   25.0640  -12.2174    0.0000 C    0  0  0  0  0  0  0  0  0  0  0  0
   25.0198  -10.5058    0.0000 C    0  0  0  0  0  0  0  0  0  0  0  0
   20.6832  -14.8994    0.0000 C    0  0  0  0  0  0  0  0  0  0  0  0
   22.1875  -15.7171    0.0000 C    0  0  0  0  0  0  0  0  0  0  0  0
   19.2229  -15.7936    0.0000 C    0  0  0  0  0  0  0  0  0  0  0  0
   22.2316  -17.4288    0.0000 C    0  0  0  0  0  0  0  0  0  0  0  0
   19.2670  -17.5051    0.0000 C    0  0  0  0  0  0  0  0  0  0  0  0
   20.7714  -18.3227    0.0000 C    0  0  0  0  0  0  0  0  0  0  0  0
    6.4607  -18.8893    0.0000 C    0  0  0  0  0  0  0  0  0  0  0  0
    5.6438  -20.3940    0.0000 C    0  0  0  0  0  0  0  0  0  0  0  0
    5.5659  -17.4294    0.0000 C    0  0  0  0  0  0  0  0  0  0  0  0
    3.9321  -20.4389    0.0000 C    0  0  0  0  0  0  0  0  0  0  0  0
    3.8543  -17.4744    0.0000 C    0  0  0  0  0  0  0  0  0  0  0  0
    3.0375  -18.9791    0.0000 C    0  0  0  0  0  0  0  0  0  0  0  0
    9.0670  -20.3041    0.0000 C    0  0  0  0  0  0  0  0  0  0  0  0
   10.7786  -20.2592    0.0000 C    0  0  0  0  0  0  0  0  0  0  0  0
    8.2501  -21.8090    0.0000 C    0  0  0  0  0  0  0  0  0  0  0  0
   11.6733  -21.7192    0.0000 C    0  0  0  0  0  0  0  0  0  0  0  0
    9.1448  -23.2688    0.0000 C    0  0  0  0  0  0  0  0  0  0  0  0
   10.8564  -23.2239    0.0000 C    0  0  0  0  0  0  0  0  0  0  0  0
    9.9990  -10.7522    0.0000 Br   0  5  0  0  0  0  0  0  0  0  0  0
  1  2  1  0  0  0  0
  1  3  1  0  0  0  0
  1  4  1  0  0  0  0
  1  5  1  0  0  0  0
  6  7  1  0  0  0  0
  6  8  2  0  0  0  0
  7  9  2  0  0  0  0
  8 10  1  0  0  0  0
  9 11  1  0  0  0  0
 10 11  2  0  0  0  0
  4  6  1  0  0  0  0
 12 13  1  0  0  0  0
 12 14  2  0  0  0  0
 13 15  2  0  0  0  0
 14 16  1  0  0  0  0
 15 17  1  0  0  0  0
 16 17  2  0  0  0  0
  4 12  1  0  0  0  0
 18 19  1  0  0  0  0
 18 20  2  0  0  0  0
 19 21  2  0  0  0  0
 20 22  1  0  0  0  0
 21 23  1  0  0  0  0
 22 23  2  0  0  0  0
  5 18  1  0  0  0  0
 24 25  1  0  0  0  0
 24 26  2  0  0  0  0
 25 27  2  0  0  0  0
 26 28  1  0  0  0  0
 27 29  1  0  0  0  0
 28 29  2  0  0  0  0
  5 24  1  0  0  0  0
  4 30  1  0  0  0  0
 30 31  1  0  0  0  0
 31 32  1  0  0  0  0
  5 33  1  0  0  0  0
 33 34  1  0  0  0  0
 34 35  1  0  0  0  0
 32 36  1  0  0  0  0
 35 37  1  0  0  0  0
 38 39  1  0  0  0  0
 38 40  2  0  0  0  0
 39 41  2  0  0  0  0
 40 42  1  0  0  0  0
 41 43  1  0  0  0  0
 42 43  2  0  0  0  0
 36 38  1  0  0  0  0
 44 45  1  0  0  0  0
 44 46  2  0  0  0  0
 45 47  2  0  0  0  0
 46 48  1  0  0  0  0
 47 49  1  0  0  0  0
 48 49  2  0  0  0  0
 36 44  1  0  0  0  0
 50 51  1  0  0  0  0
 50 52  2  0  0  0  0
 51 53  2  0  0  0  0
 52 54  1  0  0  0  0
 53 55  1  0  0  0  0
 54 55  2  0  0  0  0
 37 50  1  0  0  0  0
 56 57  1  0  0  0  0
 56 58  2  0  0  0  0
 57 59  2  0  0  0  0
 58 60  1  0  0  0  0
 59 61  1  0  0  0  0
 60 61  2  0  0  0  0
 37 56  1  0  0  0  0
M  END
> <NMREDATA_VERSION>
1.1

> <NMREDATA_LEVEL>
0

> <NMREDATA_SOLVENT>
CD2Cl2

> <NMREDATA_TEMPERATURE>
300

> <NMREDATA_FORMULA>
C54H55Br3RhSb4

> <NMREDATA_SMILES>
Br[Rh]([SbH](c1ccccc1)(c1ccccc1)CCC[Sb](c1ccccc1)c1ccccc1)([SbH](c1ccccc1)(c1ccccc1)CCC[Sb](c1ccccc1)c1ccccc1)Br.Br

> <NMREDATA_ASSIGNMENT>
Rh1, 1535.00, 1

> <NMREDATA_1D_103Rh>
1535.00, L=Rh1

$$$$

  ACD/LABS04032413482D

 32 32  0  0  0  0  0  0  0  0  2 V2000
   13.5083  -14.6781    0.0000 Rh   0  5  0  0  0  0  0  0  0  0  0  0
   12.4347  -13.5083    0.0000 Br   0  0  0  0  0  0  0  0  0  0  0  0
   14.7902  -16.1202    0.0000 Br   0  0  0  0  0  0  0  0  0  0  0  0
   14.9665  -13.7807    0.0000 Sb   0  3  0  0  0  0  0  0  0  0  0  0
   11.6976  -16.0722    0.0000 Sb   0  3  0  0  0  0  0  0  0  0  0  0
   14.9185  -12.0692    0.0000 C    0  0  0  0  0  0  0  0  0  0  0  0
   10.1147  -15.4195    0.0000 C    0  0  0  0  0  0  0  0  0  0  0  0
   11.9238  -17.7693    0.0000 C    0  0  0  0  0  0  0  0  0  0  0  0
   15.8799  -14.8704    0.0000 C    0  0  0  0  0  0  0  0  0  0  0  0
   10.3409  -17.1167    0.0000 C    0  0  0  0  0  0  0  0  0  0  0  0
   10.5671  -18.8139    0.0000 C    0  0  0  0  0  0  0  0  0  0  0  0
    8.7579  -16.4640    0.0000 C    0  0  0  0  0  0  0  0  0  0  0  0
    9.2103  -19.8584    0.0000 C    0  0  0  0  0  0  0  0  0  0  0  0
    7.4013  -17.5085    0.0000 C    0  0  0  0  0  0  0  0  0  0  0  0
    7.6275  -19.2057    0.0000 C    0  0  0  0  0  0  0  0  0  0  0  0
   16.5672  -13.1730    0.0000 C    0  0  0  0  0  0  0  0  0  0  0  0
   16.8413  -11.4829    0.0000 C    0  0  0  0  0  0  0  0  0  0  0  0
   17.8940  -14.2555    0.0000 C    0  0  0  0  0  0  0  0  0  0  0  0
   18.4421  -10.8753    0.0000 C    0  0  0  0  0  0  0  0  0  0  0  0
   19.4946  -13.6478    0.0000 C    0  0  0  0  0  0  0  0  0  0  0  0
   19.7687  -11.9577    0.0000 C    0  0  0  0  0  0  0  0  0  0  0  0
   18.3316  -15.2229    0.0000 Sb   0  0  0  0  0  0  0  0  0  0  0  0
   11.6175  -19.7257    0.0000 Sb   0  0  0  0  0  0  0  0  0  0  0  0
   13.0436  -19.1328    0.0000 C    0  0  0  0  0  0  0  0  0  0  0  0
   12.7552  -20.7352    0.0000 C    0  0  0  0  0  0  0  0  0  0  0  0
   18.2675  -16.3446    0.0000 C    0  0  0  0  0  0  0  0  0  0  0  0
   20.0301  -15.7677    0.0000 C    0  0  0  0  0  0  0  0  0  0  0  0
   26.3516  -13.3801    0.0000 B    0  5  0  0  0  0  0  0  0  0  0  0
   26.3516  -11.8578    0.0000 F    0  0  0  0  0  0  0  0  0  0  0  0
   27.8739  -13.3801    0.0000 F    0  0  0  0  0  0  0  0  0  0  0  0
   24.8293  -13.3801    0.0000 F    0  0  0  0  0  0  0  0  0  0  0  0
   26.3516  -14.9024    0.0000 F    0  0  0  0  0  0  0  0  0  0  0  0
  1  2  1  0  0  0  0
  1  3  1  0  0  0  0
  1  4  1  0  0  0  0
  1  5  1  0  0  0  0
  4  6  1  0  0  0  0
  5  7  1  0  0  0  0
  5  8  1  0  0  0  0
  4  9  1  0  0  0  0
 10 11  1  0  0  0  0
 10 12  2  0  0  0  0
 11 13  2  0  0  0  0
 12 14  1  0  0  0  0
 13 15  1  0  0  0  0
 14 15  2  0  0  0  0
  5 10  1  0  0  0  0
 16 17  1  0  0  0  0
 16 18  2  0  0  0  0
 17 19  2  0  0  0  0
 18 20  1  0  0  0  0
 19 21  1  0  0  0  0
 20 21  2  0  0  0  0
  4 16  1  0  0  0  0
 18 22  1  0  0  0  0
 11 23  1  0  0  0  0
 23 24  1  0  0  0  0
 23 25  1  0  0  0  0
 22 26  1  0  0  0  0
 22 27  1  0  0  0  0
 28 29  1  0  0  0  0
 28 30  1  0  0  0  0
 28 31  1  0  0  0  0
 28 32  1  0  0  0  0
M  END
> <NMREDATA_VERSION>
1.1

> <NMREDATA_LEVEL>
0

> <NMREDATA_SOLVENT>
CD2Cl2

> <NMREDATA_TEMPERATURE>
300

> <NMREDATA_FORMULA>
C20H34BBr2F4RhSb4

> <NMREDATA_SMILES>
F[B](F)(F)F.C[Sb](c1ccccc1[SbH]([Rh]([SbH](c1ccccc1[Sb](C)C)(C)C)(Br)Br)(C)C)C

> <NMREDATA_ASSIGNMENT>
Rh1, 1757.00, 1

> <NMREDATA_1D_103Rh>
1757.00, L=Rh1

$$$$

  ACD/LABS04032413492D

 13 12  0  0  0  0  0  0  0  0  1 V2000
   10.7201  -14.4698    0.0000 Rh   0  0  0  0  0  0  0  0  0  0  0  0
   10.3516  -13.3641    0.0000 Br   0  0  0  0  0  0  0  0  0  0  0  0
   10.1112  -15.3992    0.0000 Br   0  0  0  0  0  0  0  0  0  0  0  0
   12.2584  -13.7807    0.0000 Br   0  0  0  0  0  0  0  0  0  0  0  0
   11.1528  -12.9635    0.0000 Te   0  0  0  0  0  0  0  0  0  0  0  0
   12.4668  -14.9825    0.0000 Te   0  0  0  0  0  0  0  0  0  0  0  0
   11.3451  -15.8639    0.0000 Te   0  0  0  0  0  0  0  0  0  0  0  0
   11.2970  -11.7937    0.0000 C    0  0  0  0  0  0  0  0  0  0  0  0
   12.1463  -12.4988    0.0000 C    0  0  0  0  0  0  0  0  0  0  0  0
   14.1012  -14.4698    0.0000 C    0  0  0  0  0  0  0  0  0  0  0  0
   13.8448  -15.3511    0.0000 C    0  0  0  0  0  0  0  0  0  0  0  0
   12.7071  -16.3606    0.0000 C    0  0  0  0  0  0  0  0  0  0  0  0
   10.6721  -16.6330    0.0000 C    0  0  0  0  0  0  0  0  0  0  0  0
  1  2  1  0  0  0  0
  1  3  1  0  0  0  0
  1  4  1  0  0  0  0
  1  5  1  0  0  0  0
  1  6  1  0  0  0  0
  1  7  1  0  0  0  0
  5  8  1  0  0  0  0
  5  9  1  0  0  0  0
  6 10  1  0  0  0  0
  6 11  1  0  0  0  0
  7 12  1  0  0  0  0
  7 13  1  0  0  0  0
M  END
> <NMREDATA_VERSION>
1.1

> <NMREDATA_LEVEL>
0

> <NMREDATA_SOLVENT>
CD2Cl2

> <NMREDATA_FORMULA>
C6H21Br3RhTe3

> <NMREDATA_SMILES>
C[TeH]([Rh]([TeH](C)C)([TeH](C)C)(Br)(Br)Br)C

> <NMREDATA_ASSIGNMENT>
Rh1, 2567.00, 1

> <NMREDATA_1D_103Rh>
2567.00, L=Rh1

$$$$

  ACD/LABS04032413512D

 28 26  0  0  0  0  0  0  0  0  2 V2000
   12.7071  -13.4763    0.0000 Rh   0  5  0  0  0  0  0  0  0  0  0  0
   11.4252  -12.1623    0.0000 I    0  0  0  0  0  0  0  0  0  0  0  0
   11.0246  -12.8353    0.0000 I    0  0  0  0  0  0  0  0  0  0  0  0
   14.1813  -12.3866    0.0000 I    0  0  0  0  0  0  0  0  0  0  0  0
   14.6300  -13.1237    0.0000 I    0  0  0  0  0  0  0  0  0  0  0  0
   11.3130  -14.4858    0.0000 S    0  0  0  0  0  0  0  0  0  0  0  0
   13.9570  -14.6621    0.0000 S    0  0  0  0  0  0  0  0  0  0  0  0
   11.9860  -15.7196    0.0000 C    0  0  0  0  0  0  0  0  0  0  0  0
    9.6946  -14.5819    0.0000 C    0  0  0  0  0  0  0  0  0  0  0  0
   14.7582  -15.5113    0.0000 C    0  0  0  0  0  0  0  0  0  0  0  0
   15.1588  -14.4217    0.0000 C    0  0  0  0  0  0  0  0  0  0  0  0
   20.3574  -13.3321    0.0000 N    0  3  0  0  0  0  0  0  0  0  0  0
   21.0235  -12.9475    0.0000 C    0  0  0  0  0  0  0  0  0  0  0  0
   21.0235  -12.1783    0.0000 C    0  0  0  0  0  0  0  0  0  0  0  0
   21.6896  -11.7937    0.0000 C    0  0  0  0  0  0  0  0  0  0  0  0
   21.6896  -11.0246    0.0000 C    0  0  0  0  0  0  0  0  0  0  0  0
   19.9728  -12.6659    0.0000 C    0  0  0  0  0  0  0  0  0  0  0  0
   20.3574  -11.9998    0.0000 C    0  0  0  0  0  0  0  0  0  0  0  0
   19.9728  -11.3337    0.0000 C    0  0  0  0  0  0  0  0  0  0  0  0
   20.3574  -10.6676    0.0000 C    0  0  0  0  0  0  0  0  0  0  0  0
   20.7419  -13.9982    0.0000 C    0  0  0  0  0  0  0  0  0  0  0  0
   20.3574  -14.6643    0.0000 C    0  0  0  0  0  0  0  0  0  0  0  0
   20.7419  -15.3304    0.0000 C    0  0  0  0  0  0  0  0  0  0  0  0
   20.3574  -15.9965    0.0000 C    0  0  0  0  0  0  0  0  0  0  0  0
   19.6913  -13.7166    0.0000 C    0  0  0  0  0  0  0  0  0  0  0  0
   19.0252  -13.3321    0.0000 C    0  0  0  0  0  0  0  0  0  0  0  0
   18.3590  -13.7166    0.0000 C    0  0  0  0  0  0  0  0  0  0  0  0
   17.6929  -13.3321    0.0000 C    0  0  0  0  0  0  0  0  0  0  0  0
  1  2  1  0  0  0  0
  1  3  1  0  0  0  0
  1  4  1  0  0  0  0
  1  5  1  0  0  0  0
  1  6  1  0  0  0  0
  1  7  1  0  0  0  0
  6  8  1  0  0  0  0
  6  9  1  0  0  0  0
  7 10  1  0  0  0  0
  7 11  1  0  0  0  0
 12 13  1  0  0  0  0
 13 14  1  0  0  0  0
 14 15  1  0  0  0  0
 15 16  1  0  0  0  0
 12 17  1  0  0  0  0
 17 18  1  0  0  0  0
 18 19  1  0  0  0  0
 19 20  1  0  0  0  0
 12 21  1  0  0  0  0
 21 22  1  0  0  0  0
 22 23  1  0  0  0  0
 23 24  1  0  0  0  0
 12 25  1  0  0  0  0
 25 26  1  0  0  0  0
 26 27  1  0  0  0  0
 27 28  1  0  0  0  0
M  END
> <NMREDATA_VERSION>
1.1

> <NMREDATA_LEVEL>
0

> <NMREDATA_SOLVENT>
CD2Cl2

> <NMREDATA_FORMULA>
C20H51I4NRhS2

> <NMREDATA_SMILES>
CS([Rh](S(C)C)(I)(I)(I)I)C.CCCCN(CCCC)(CCCC)CCCC

> <NMREDATA_ASSIGNMENT>
Rh1, 3070.00, 1

> <NMREDATA_1D_103Rh>
3070.00, L=Rh1

$$$$

  ACD/LABS04032413512D

 28 26  0  0  0  0  0  0  0  0  2 V2000
   12.7071  -13.4763    0.0000 Rh   0  5  0  0  0  0  0  0  0  0  0  0
   11.4252  -12.1623    0.0000 I    0  0  0  0  0  0  0  0  0  0  0  0
   11.0246  -12.8353    0.0000 I    0  0  0  0  0  0  0  0  0  0  0  0
   14.7742  -14.3095    0.0000 I    0  0  0  0  0  0  0  0  0  0  0  0
   14.1493  -14.9665    0.0000 I    0  0  0  0  0  0  0  0  0  0  0  0
   11.3130  -14.4858    0.0000 S    0  0  0  0  0  0  0  0  0  0  0  0
   14.1653  -12.6110    0.0000 S    0  0  0  0  0  0  0  0  0  0  0  0
   11.9860  -15.7196    0.0000 C    0  0  0  0  0  0  0  0  0  0  0  0
    9.6946  -14.5819    0.0000 C    0  0  0  0  0  0  0  0  0  0  0  0
   14.9505  -12.7071    0.0000 C    0  0  0  0  0  0  0  0  0  0  0  0
   14.4057  -11.5374    0.0000 C    0  0  0  0  0  0  0  0  0  0  0  0
   20.3574  -13.3321    0.0000 N    0  3  0  0  0  0  0  0  0  0  0  0
   21.0235  -12.9475    0.0000 C    0  0  0  0  0  0  0  0  0  0  0  0
   21.0235  -12.1783    0.0000 C    0  0  0  0  0  0  0  0  0  0  0  0
   21.6896  -11.7937    0.0000 C    0  0  0  0  0  0  0  0  0  0  0  0
   21.6896  -11.0246    0.0000 C    0  0  0  0  0  0  0  0  0  0  0  0
   19.9728  -12.6659    0.0000 C    0  0  0  0  0  0  0  0  0  0  0  0
   20.3574  -11.9998    0.0000 C    0  0  0  0  0  0  0  0  0  0  0  0
   19.9728  -11.3337    0.0000 C    0  0  0  0  0  0  0  0  0  0  0  0
   20.3574  -10.6676    0.0000 C    0  0  0  0  0  0  0  0  0  0  0  0
   20.7419  -13.9982    0.0000 C    0  0  0  0  0  0  0  0  0  0  0  0
   20.3574  -14.6643    0.0000 C    0  0  0  0  0  0  0  0  0  0  0  0
   20.7419  -15.3304    0.0000 C    0  0  0  0  0  0  0  0  0  0  0  0
   20.3574  -15.9965    0.0000 C    0  0  0  0  0  0  0  0  0  0  0  0
   19.6913  -13.7166    0.0000 C    0  0  0  0  0  0  0  0  0  0  0  0
   19.0252  -13.3321    0.0000 C    0  0  0  0  0  0  0  0  0  0  0  0
   18.3590  -13.7166    0.0000 C    0  0  0  0  0  0  0  0  0  0  0  0
   17.6929  -13.3321    0.0000 C    0  0  0  0  0  0  0  0  0  0  0  0
  1  2  1  0  0  0  0
  1  3  1  0  0  0  0
  1  4  1  0  0  0  0
  1  5  1  0  0  0  0
  1  6  1  0  0  0  0
  1  7  1  0  0  0  0
  6  8  1  0  0  0  0
  6  9  1  0  0  0  0
  7 10  1  0  0  0  0
  7 11  1  0  0  0  0
 12 13  1  0  0  0  0
 13 14  1  0  0  0  0
 14 15  1  0  0  0  0
 15 16  1  0  0  0  0
 12 17  1  0  0  0  0
 17 18  1  0  0  0  0
 18 19  1  0  0  0  0
 19 20  1  0  0  0  0
 12 21  1  0  0  0  0
 21 22  1  0  0  0  0
 22 23  1  0  0  0  0
 23 24  1  0  0  0  0
 12 25  1  0  0  0  0
 25 26  1  0  0  0  0
 26 27  1  0  0  0  0
 27 28  1  0  0  0  0
M  END
> <NMREDATA_VERSION>
1.1

> <NMREDATA_LEVEL>
0

> <NMREDATA_SOLVENT>
CD2Cl2

> <NMREDATA_FORMULA>
C20H51I4NRhS2

> <NMREDATA_SMILES>
CS([Rh](S(C)C)(I)(I)(I)I)C.CCCCN(CCCC)(CCCC)CCCC

> <NMREDATA_ASSIGNMENT>
Rh1, 2958.00, 1

> <NMREDATA_1D_103Rh>
2958.00, L=Rh1

$$$$

  ACD/LABS04032413522D

 13 12  0  0  0  0  0  0  0  0  1 V2000
   12.7071  -13.4763    0.0000 Rh   0  0  0  0  0  0  0  0  0  0  0  0
   11.4252  -12.1623    0.0000 I    0  0  0  0  0  0  0  0  0  0  0  0
   11.0246  -12.8353    0.0000 I    0  0  0  0  0  0  0  0  0  0  0  0
   14.1493  -14.9665    0.0000 I    0  0  0  0  0  0  0  0  0  0  0  0
   11.3130  -14.4858    0.0000 S    0  0  0  0  0  0  0  0  0  0  0  0
   14.1653  -12.6110    0.0000 S    0  0  0  0  0  0  0  0  0  0  0  0
   11.9860  -15.7196    0.0000 C    0  0  0  0  0  0  0  0  0  0  0  0
    9.6946  -14.5819    0.0000 C    0  0  0  0  0  0  0  0  0  0  0  0
   14.9505  -12.7071    0.0000 C    0  0  0  0  0  0  0  0  0  0  0  0
   14.4057  -11.5374    0.0000 C    0  0  0  0  0  0  0  0  0  0  0  0
   14.9184  -14.1653    0.0000 S    0  0  0  0  0  0  0  0  0  0  0  0
   15.9280  -14.1813    0.0000 C    0  0  0  0  0  0  0  0  0  0  0  0
   15.3671  -14.9665    0.0000 C    0  0  0  0  0  0  0  0  0  0  0  0
  1  2  1  0  0  0  0
  1  3  1  0  0  0  0
  1  4  1  0  0  0  0
  1  5  1  0  0  0  0
  1  6  1  0  0  0  0
  5  7  1  0  0  0  0
  5  8  1  0  0  0  0
  6  9  1  0  0  0  0
  6 10  1  0  0  0  0
  1 11  1  0  0  0  0
 11 12  1  0  0  0  0
 11 13  1  0  0  0  0
M  END
> <NMREDATA_VERSION>
1.1

> <NMREDATA_LEVEL>
0

> <NMREDATA_SOLVENT>
CD2Cl2

> <NMREDATA_FORMULA>
C6H21I3RhS3

> <NMREDATA_SMILES>
CS([Rh](S(C)C)(S(C)C)(I)(I)I)C

> <NMREDATA_ASSIGNMENT>
Rh1, 2448.00, 1

> <NMREDATA_1D_103Rh>
2448.00, L=Rh1

$$$$

  ACD/LABS04032413542D

 46 45  0  0  0  0  0  0  0  0  1 V2000
   18.3891  -18.2109    0.0000 C    0  0  0  0  0  0  0  0  0  0  0  0
   19.6504  -19.3530    0.0000 As   0  0  0  0  0  0  0  0  0  0  0  0
   21.2578  -18.8306    0.0000 C    0  0  0  0  0  0  0  0  0  0  0  0
   19.2979  -21.0083    0.0000 C    0  0  0  0  0  0  0  0  0  0  0  0
   15.7728  -20.1136    0.0000 C    0  0  0  0  0  0  0  0  0  0  0  0
   14.0875  -19.9355    0.0000 As   0  0  0  0  0  0  0  0  0  0  0  0
   13.3909  -18.3889    0.0000 C    0  0  0  0  0  0  0  0  0  0  0  0
   13.0889  -21.3103    0.0000 C    0  0  0  0  0  0  0  0  0  0  0  0
   16.7712  -18.7394    0.0000 C    0  0  0  0  0  0  0  0  0  0  0  0
   15.1618  -18.2168    0.0000 C    0  0  0  0  0  0  0  0  0  0  0  0
   17.7724  -20.1102    0.0000 C    0  0  0  0  0  0  0  0  0  0  0  0
   17.0739  -21.6646    0.0000 As   0  0  0  0  0  0  0  0  0  0  0  0
   15.3846  -21.8422    0.0000 C    0  0  0  0  0  0  0  0  0  0  0  0
   18.0803  -23.0453    0.0000 C    0  0  0  0  0  0  0  0  0  0  0  0
   15.0482  -11.9260    0.0000 C    0  0  0  0  0  0  0  0  0  0  0  0
   13.5443  -11.1332    0.0000 As   0  0  0  0  0  0  0  0  0  0  0  0
   12.1008  -12.0317    0.0000 C    0  0  0  0  0  0  0  0  0  0  0  0
   13.4777   -9.4321    0.0000 C    0  0  0  0  0  0  0  0  0  0  0  0
   14.2336  -17.0395    0.0000 C    0  0  0  0  0  0  0  0  0  0  0  0
   12.5416  -16.9179    0.0000 As   0  0  0  0  0  0  0  0  0  0  0  0
   11.7958  -15.3997    0.0000 C    0  0  0  0  0  0  0  0  0  0  0  0
   11.5910  -18.3301    0.0000 C    0  0  0  0  0  0  0  0  0  0  0  0
   15.1842  -15.6273    0.0000 C    0  0  0  0  0  0  0  0  0  0  0  0
   16.2280  -16.9601    0.0000 C    0  0  0  0  0  0  0  0  0  0  0  0
   13.4890  -15.4555    0.0000 C    0  0  0  0  0  0  0  0  0  0  0  0
   12.8019  -13.9028    0.0000 As   0  0  0  0  0  0  0  0  0  0  0  0
   13.8003  -12.5287    0.0000 C    0  0  0  0  0  0  0  0  0  0  0  0
   11.1167  -13.7251    0.0000 C    0  0  0  0  0  0  0  0  0  0  0  0
   20.3241  -14.8572    0.0000 C    0  0  0  0  0  0  0  0  0  0  0  0
   21.9436  -15.3740    0.0000 As   0  0  0  0  0  0  0  0  0  0  0  0
   23.2001  -14.2429    0.0000 C    0  0  0  0  0  0  0  0  0  0  0  0
   22.2923  -17.0429    0.0000 C    0  0  0  0  0  0  0  0  0  0  0  0
   20.6696  -11.6497    0.0000 C    0  0  0  0  0  0  0  0  0  0  0  0
   19.6630  -10.2686    0.0000 As   0  0  0  0  0  0  0  0  0  0  0  0
   17.9734  -10.4464    0.0000 C    0  0  0  0  0  0  0  0  0  0  0  0
   20.3611   -8.7144    0.0000 C    0  0  0  0  0  0  0  0  0  0  0  0
   19.9812  -13.1983    0.0000 C    0  0  0  0  0  0  0  0  0  0  0  0
   18.7100  -12.0614    0.0000 C    0  0  0  0  0  0  0  0  0  0  0  0
   21.6605  -13.3659    0.0000 C    0  0  0  0  0  0  0  0  0  0  0  0
   22.6647  -12.0018    0.0000 As   0  0  0  0  0  0  0  0  0  0  0  0
   21.9777  -10.4496    0.0000 C    0  0  0  0  0  0  0  0  0  0  0  0
   24.3446  -12.1696    0.0000 C    0  0  0  0  0  0  0  0  0  0  0  0
   16.7832  -15.0446    0.0000 Rh   0  0  0  0  0  0  0  0  0  0  0  0
   15.3112  -14.1936    0.0000 I    0  0  0  0  0  0  0  0  0  0  0  0
   18.2392  -15.8904    0.0000 I    0  0  0  0  0  0  0  0  0  0  0  0
   16.7725  -13.3500    0.0000 I    0  0  0  0  0  0  0  0  0  0  0  0
  1  2  1  0  0  0  0
  2  3  1  0  0  0  0
  2  4  1  0  0  0  0
  5  6  1  0  0  0  0
  6  7  1  0  0  0  0
  6  8  1  0  0  0  0
  9 10  1  0  0  0  0
  9 11  1  0  0  0  0
 11 12  1  0  0  0  0
 12 13  1  0  0  0  0
 12 14  1  0  0  0  0
  5  9  1  0  0  0  0
  1  9  1  0  0  0  0
 15 16  1  0  0  0  0
 16 17  1  0  0  0  0
 16 18  1  0  0  0  0
 19 20  1  0  0  0  0
 20 21  1  0  0  0  0
 20 22  1  0  0  0  0
 23 24  1  0  0  0  0
 23 25  1  0  0  0  0
 25 26  1  0  0  0  0
 26 27  1  0  0  0  0
 26 28  1  0  0  0  0
 19 23  1  0  0  0  0
 15 23  1  0  0  0  0
 29 30  1  0  0  0  0
 30 31  1  0  0  0  0
 30 32  1  0  0  0  0
 33 34  1  0  0  0  0
 34 35  1  0  0  0  0
 34 36  1  0  0  0  0
 37 38  1  0  0  0  0
 37 39  1  0  0  0  0
 39 40  1  0  0  0  0
 40 41  1  0  0  0  0
 40 42  1  0  0  0  0
 33 37  1  0  0  0  0
 29 37  1  0  0  0  0
 43 44  1  0  0  0  0
 43 45  1  0  0  0  0
 43 46  1  0  0  0  0
 37 43  1  0  0  0  0
 23 43  1  0  0  0  0
  9 43  1  0  0  0  0
M  END
> <NMREDATA_VERSION>
1.1

> <NMREDATA_LEVEL>
0

> <NMREDATA_SOLVENT>
DMF-d7

> <NMREDATA_TEMPERATURE>
300

> <NMREDATA_FORMULA>
C33H81As9I3Rh

> <NMREDATA_SMILES>
C[As](C[C]([Rh]([C](C[As](C)C)(C[As](C)C)(C[As](C)C)C)([C](C[As](C)C)(C[As](C)C)(C[As](C)C)C)(I)(I)I)(C[As](C)C)(C[As](C)C)C)C

> <NMREDATA_ASSIGNMENT>
Rh43, 1178.00, 43

> <NMREDATA_1D_103Rh>
1178.00, L=Rh43

$$$$

  ACD/LABS04032413562D

 28 28  0  0  0  0  0  0  0  0  2 V2000
   21.1980  -14.0131    0.0000 C    0  0  0  0  0  0  0  0  0  0  0  0
   21.1980  -15.3431    0.0000 C    0  0  0  0  0  0  0  0  0  0  0  0
   20.0461  -13.3481    0.0000 C    0  0  0  0  0  0  0  0  0  0  0  0
   20.0461  -16.0081    0.0000 C    0  0  0  0  0  0  0  0  0  0  0  0
   18.8943  -14.0131    0.0000 C    0  0  0  0  0  0  0  0  0  0  0  0
   18.8943  -15.3431    0.0000 C    0  0  0  0  0  0  0  0  0  0  0  0
   17.5304  -14.3095    0.0000 As   0  0  0  0  0  0  0  0  0  0  0  0
   20.0462  -12.3866    0.0000 As   0  0  0  0  0  0  0  0  0  0  0  0
   17.3862  -15.2389    0.0000 C    0  0  0  0  0  0  0  0  0  0  0  0
   17.5464  -13.3000    0.0000 C    0  0  0  0  0  0  0  0  0  0  0  0
   19.4052  -11.6976    0.0000 C    0  0  0  0  0  0  0  0  0  0  0  0
   21.3281  -11.4412    0.0000 C    0  0  0  0  0  0  0  0  0  0  0  0
   10.3497  -14.7021    0.0000 C    0  0  0  0  0  0  0  0  0  0  0  0
   10.3497  -16.0321    0.0000 C    0  0  0  0  0  0  0  0  0  0  0  0
    9.1978  -14.0371    0.0000 C    0  0  0  0  0  0  0  0  0  0  0  0
    9.1978  -16.6971    0.0000 C    0  0  0  0  0  0  0  0  0  0  0  0
    8.0460  -14.7021    0.0000 C    0  0  0  0  0  0  0  0  0  0  0  0
    8.0460  -16.0321    0.0000 C    0  0  0  0  0  0  0  0  0  0  0  0
   11.3931  -14.4377    0.0000 As   0  0  0  0  0  0  0  0  0  0  0  0
    8.5729  -13.0276    0.0000 As   0  0  0  0  0  0  0  0  0  0  0  0
    8.4127  -12.0021    0.0000 C    0  0  0  0  0  0  0  0  0  0  0  0
    6.9384  -12.9475    0.0000 C    0  0  0  0  0  0  0  0  0  0  0  0
   12.0341  -15.6395    0.0000 C    0  0  0  0  0  0  0  0  0  0  0  0
   12.8994  -14.8704    0.0000 C    0  0  0  0  0  0  0  0  0  0  0  0
   11.9059  -12.5629    0.0000 Rh   0  3  0  0  0  0  0  0  0  0  0  0
   11.0406  -11.5053    0.0000 I    0  0  0  0  0  0  0  0  0  0  0  0
   13.4282  -11.5213    0.0000 I    0  0  0  0  0  0  0  0  0  0  0  0
   27.3051  -11.3451    0.0000 I    0  5  0  0  0  0  0  0  0  0  0  0
  1  2  1  0  0  0  0
  1  3  2  0  0  0  0
  2  4  2  0  0  0  0
  3  5  1  0  0  0  0
  4  6  1  0  0  0  0
  5  6  2  0  0  0  0
  5  7  1  0  0  0  0
  3  8  1  0  0  0  0
  7  9  1  0  0  0  0
  7 10  1  0  0  0  0
  8 11  1  0  0  0  0
  8 12  1  0  0  0  0
 13 14  1  0  0  0  0
 13 15  2  0  0  0  0
 14 16  2  0  0  0  0
 15 17  1  0  0  0  0
 16 18  1  0  0  0  0
 17 18  2  0  0  0  0
 13 19  1  0  0  0  0
 15 20  1  0  0  0  0
 20 21  1  0  0  0  0
 20 22  1  0  0  0  0
 19 23  1  0  0  0  0
 19 24  1  0  0  0  0
 25 26  1  0  0  0  0
 25 27  1  0  0  0  0
 19 25  1  0  0  0  0
  7 25  1  0  0  0  0
M  END
> <NMREDATA_VERSION>
1.1

> <NMREDATA_LEVEL>
0

> <NMREDATA_SOLVENT>
DMF-d7

> <NMREDATA_TEMPERATURE>
300

> <NMREDATA_FORMULA>
C20H35As4I3Rh

> <NMREDATA_SMILES>
C[As](c1ccccc1[AsH]([Rh]([AsH](c1ccccc1[As](C)C)(C)C)(I)I)(C)C)C.I

> <NMREDATA_ASSIGNMENT>
Rh25, -300.00, 25

> <NMREDATA_1D_103Rh>
-300.00, L=Rh25

$$$$

  ACD/LABS04032413572D

 32 32  0  0  0  0  0  0  0  0  2 V2000
   19.1610  -11.0246    0.0000 C    0  0  0  0  0  0  0  0  0  0  0  0
   19.1610  -12.3546    0.0000 C    0  0  0  0  0  0  0  0  0  0  0  0
   18.0091  -10.3596    0.0000 C    0  0  0  0  0  0  0  0  0  0  0  0
   18.0091  -13.0196    0.0000 C    0  0  0  0  0  0  0  0  0  0  0  0
   16.8574  -11.0246    0.0000 C    0  0  0  0  0  0  0  0  0  0  0  0
   16.8574  -12.3546    0.0000 C    0  0  0  0  0  0  0  0  0  0  0  0
   15.4934  -11.3210    0.0000 As   0  0  0  0  0  0  0  0  0  0  0  0
   18.0092   -9.3981    0.0000 As   0  0  0  0  0  0  0  0  0  0  0  0
   15.3492  -12.2504    0.0000 C    0  0  0  0  0  0  0  0  0  0  0  0
   15.5094  -10.3115    0.0000 C    0  0  0  0  0  0  0  0  0  0  0  0
   17.3682   -8.7091    0.0000 C    0  0  0  0  0  0  0  0  0  0  0  0
   19.2911   -8.4527    0.0000 C    0  0  0  0  0  0  0  0  0  0  0  0
   10.3497  -14.7021    0.0000 C    0  0  0  0  0  0  0  0  0  0  0  0
   10.3497  -16.0321    0.0000 C    0  0  0  0  0  0  0  0  0  0  0  0
    9.1978  -14.0371    0.0000 C    0  0  0  0  0  0  0  0  0  0  0  0
    9.1978  -16.6971    0.0000 C    0  0  0  0  0  0  0  0  0  0  0  0
    8.0460  -14.7021    0.0000 C    0  0  0  0  0  0  0  0  0  0  0  0
    8.0460  -16.0321    0.0000 C    0  0  0  0  0  0  0  0  0  0  0  0
   11.3931  -14.4377    0.0000 As   0  0  0  0  0  0  0  0  0  0  0  0
    8.5729  -13.0276    0.0000 As   0  0  0  0  0  0  0  0  0  0  0  0
    8.4127  -12.0021    0.0000 C    0  0  0  0  0  0  0  0  0  0  0  0
    6.9384  -12.9475    0.0000 C    0  0  0  0  0  0  0  0  0  0  0  0
   12.0341  -15.6395    0.0000 C    0  0  0  0  0  0  0  0  0  0  0  0
   12.8994  -14.8704    0.0000 C    0  0  0  0  0  0  0  0  0  0  0  0
   11.9059  -12.5629    0.0000 Rh   0  3  0  0  0  0  0  0  0  0  0  0
   11.0406  -11.5053    0.0000 I    0  0  0  0  0  0  0  0  0  0  0  0
   14.8543  -14.9505    0.0000 I    0  0  0  0  0  0  0  0  0  0  0  0
   23.5634  -14.1813    0.0000 B    0  5  0  0  0  0  0  0  0  0  0  0
   23.5634  -12.9955    0.0000 F    0  0  0  0  0  0  0  0  0  0  0  0
   24.7492  -14.1813    0.0000 F    0  0  0  0  0  0  0  0  0  0  0  0
   22.3777  -14.1813    0.0000 F    0  0  0  0  0  0  0  0  0  0  0  0
   23.5634  -15.3671    0.0000 F    0  0  0  0  0  0  0  0  0  0  0  0
  1  2  1  0  0  0  0
  1  3  2  0  0  0  0
  2  4  2  0  0  0  0
  3  5  1  0  0  0  0
  4  6  1  0  0  0  0
  5  6  2  0  0  0  0
  5  7  1  0  0  0  0
  3  8  1  0  0  0  0
  7  9  1  0  0  0  0
  7 10  1  0  0  0  0
  8 11  1  0  0  0  0
  8 12  1  0  0  0  0
 13 14  1  0  0  0  0
 13 15  2  0  0  0  0
 14 16  2  0  0  0  0
 15 17  1  0  0  0  0
 16 18  1  0  0  0  0
 17 18  2  0  0  0  0
 13 19  1  0  0  0  0
 15 20  1  0  0  0  0
 20 21  1  0  0  0  0
 20 22  1  0  0  0  0
 19 23  1  0  0  0  0
 19 24  1  0  0  0  0
 25 26  1  0  0  0  0
 25 27  1  0  0  0  0
 19 25  1  0  0  0  0
  7 25  1  0  0  0  0
 28 29  1  0  0  0  0
 28 30  1  0  0  0  0
 28 31  1  0  0  0  0
 28 32  1  0  0  0  0
M  END
> <NMREDATA_VERSION>
1.1

> <NMREDATA_LEVEL>
0

> <NMREDATA_SOLVENT>
DMF-d7

> <NMREDATA_TEMPERATURE>
300

> <NMREDATA_FORMULA>
C20H34As4BF4I2Rh

> <NMREDATA_SMILES>
F[B](F)(F)F.C[As](c1ccccc1[AsH]([Rh]([AsH](c1ccccc1[As](C)C)(C)C)(I)I)(C)C)C

> <NMREDATA_ASSIGNMENT>
Rh25, -160.00, 25

> <NMREDATA_1D_103Rh>
-160.00, L=Rh25

$$$$

  ACD/LABS04042409532D

 33 34  0  0  0  0  0  0  0  0  2 V2000
   23.5634  -14.1813    0.0000 B    0  5  0  0  0  0  0  0  0  0  0  0
   23.5634  -12.9955    0.0000 F    0  0  0  0  0  0  0  0  0  0  0  0
   24.7492  -14.1813    0.0000 F    0  0  0  0  0  0  0  0  0  0  0  0
   22.3777  -14.1813    0.0000 F    0  0  0  0  0  0  0  0  0  0  0  0
   23.5634  -15.3671    0.0000 F    0  0  0  0  0  0  0  0  0  0  0  0
   12.7542   -8.6338    0.0000 Rh   0  3  0  0  0  0  0  0  0  0  0  0
   14.4889   -7.6323    0.0000 I    0  0  0  0  0  0  0  0  0  0  0  0
   11.0196   -7.6323    0.0000 I    0  0  0  0  0  0  0  0  0  0  0  0
   12.7542  -10.6369    0.0000 As   0  0  0  0  0  0  0  0  0  0  0  0
   12.7542  -12.6399    0.0000 C    0  0  0  0  0  0  0  0  0  0  0  0
   14.4889  -13.6414    0.0000 C    0  0  0  0  0  0  0  0  0  0  0  0
   11.0196  -13.6414    0.0000 C    0  0  0  0  0  0  0  0  0  0  0  0
   14.4889  -15.6444    0.0000 C    0  0  0  0  0  0  0  0  0  0  0  0
   11.0196  -15.6444    0.0000 C    0  0  0  0  0  0  0  0  0  0  0  0
   12.7542  -16.6459    0.0000 C    0  0  0  0  0  0  0  0  0  0  0  0
   10.7512  -10.6369    0.0000 C    0  0  0  0  0  0  0  0  0  0  0  0
    9.7497  -12.3715    0.0000 C    0  0  0  0  0  0  0  0  0  0  0  0
    9.7497   -8.9022    0.0000 C    0  0  0  0  0  0  0  0  0  0  0  0
    7.7467  -12.3715    0.0000 C    0  0  0  0  0  0  0  0  0  0  0  0
    7.7467   -8.9022    0.0000 C    0  0  0  0  0  0  0  0  0  0  0  0
    6.7452  -10.6369    0.0000 C    0  0  0  0  0  0  0  0  0  0  0  0
   18.7633  -10.6369    0.0000 C    0  0  0  0  0  0  0  0  0  0  0  0
   17.7618  -12.3715    0.0000 C    0  0  0  0  0  0  0  0  0  0  0  0
   17.7618   -8.9022    0.0000 C    0  0  0  0  0  0  0  0  0  0  0  0
   15.7588  -12.3715    0.0000 C    0  0  0  0  0  0  0  0  0  0  0  0
   15.7588   -8.9022    0.0000 C    0  0  0  0  0  0  0  0  0  0  0  0
   14.7573  -10.6369    0.0000 C    0  0  0  0  0  0  0  0  0  0  0  0
   10.7512  -14.1062    0.0000 As   0  0  0  0  0  0  0  0  0  0  0  0
   14.7573   -7.1675    0.0000 As   0  0  0  0  0  0  0  0  0  0  0  0
    9.2849  -12.6399    0.0000 As   0  0  0  0  0  0  0  0  0  0  0  0
    9.7497  -15.8408    0.0000 C    0  0  0  0  0  0  0  0  0  0  0  0
   15.7588   -5.4329    0.0000 C    0  0  0  0  0  0  0  0  0  0  0  0
    9.2849  -10.6369    0.0000 C    0  0  0  0  0  0  0  0  0  0  0  0
  1  2  1  0  0  0  0
  1  3  1  0  0  0  0
  1  4  1  0  0  0  0
  1  5  1  0  0  0  0
  6  7  1  0  0  0  0
  6  8  1  0  0  0  0
  6  9  1  0  0  0  0
 10 11  1  0  0  0  0
 10 12  2  0  0  0  0
 11 13  2  0  0  0  0
 12 14  1  0  0  0  0
 13 15  1  0  0  0  0
 14 15  2  0  0  0  0
  9 10  1  0  0  0  0
 16 17  1  0  0  0  0
 16 18  2  0  0  0  0
 17 19  2  0  0  0  0
 18 20  1  0  0  0  0
 19 21  1  0  0  0  0
 20 21  2  0  0  0  0
  9 16  1  0  0  0  0
 22 23  1  0  0  0  0
 22 24  2  0  0  0  0
 23 25  2  0  0  0  0
 24 26  1  0  0  0  0
 25 27  1  0  0  0  0
 26 27  2  0  0  0  0
  9 27  1  0  0  0  0
 17 28  1  0  0  0  0
 26 29  1  0  0  0  0
 12 30  1  0  0  0  0
 28 31  1  0  0  0  0
 29 32  1  0  0  0  0
 30 33  1  0  0  0  0
M  END
> <NMREDATA_VERSION>
1.1

> <NMREDATA_LEVEL>
0

> <NMREDATA_SOLVENT>
DMF-d7

> <NMREDATA_TEMPERATURE>
300

> <NMREDATA_FORMULA>
C21H25As4BF4I2Rh

> <NMREDATA_SMILES>
F[B](F)(F)F.C[AsH]c1ccccc1[AsH](c1ccccc1[AsH]C)(c1ccccc1[AsH]C)[Rh](I)I

> <NMREDATA_ASSIGNMENT>
Rh6, 650.00, 6

> <NMREDATA_1D_103Rh>
650.00, L=Rh6

$$$$

  ACD/LABS04042409552D

 62 68  0  0  0  0  0  0  0  0  2 V2000
   15.1268  -10.8002    0.0000 Rh   0  5  0  0  0  0  0  0  0  0  0  0
   13.6846   -9.3421    0.0000 I    0  0  0  0  0  0  0  0  0  0  0  0
   16.5208  -12.1142    0.0000 I    0  0  0  0  0  0  0  0  0  0  0  0
   16.8894   -9.6946    0.0000 Sb   0  3  0  0  0  0  0  0  0  0  0  0
   13.2039  -12.2264    0.0000 Sb   0  3  0  0  0  0  0  0  0  0  0  0
   18.7019  -10.6543    0.0000 C    0  0  0  0  0  0  0  0  0  0  0  0
   20.4393   -9.5645    0.0000 C    0  0  0  0  0  0  0  0  0  0  0  0
   18.7771  -12.7039    0.0000 C    0  0  0  0  0  0  0  0  0  0  0  0
   22.2519  -10.5244    0.0000 C    0  0  0  0  0  0  0  0  0  0  0  0
   20.5895  -13.6636    0.0000 C    0  0  0  0  0  0  0  0  0  0  0  0
   22.3269  -12.5738    0.0000 C    0  0  0  0  0  0  0  0  0  0  0  0
   16.8143   -7.6451    0.0000 C    0  0  0  0  0  0  0  0  0  0  0  0
   15.0018   -6.6853    0.0000 C    0  0  0  0  0  0  0  0  0  0  0  0
   18.5518   -6.5552    0.0000 C    0  0  0  0  0  0  0  0  0  0  0  0
   14.9268   -4.6357    0.0000 C    0  0  0  0  0  0  0  0  0  0  0  0
   18.4767   -4.5057    0.0000 C    0  0  0  0  0  0  0  0  0  0  0  0
   16.6642   -3.5459    0.0000 C    0  0  0  0  0  0  0  0  0  0  0  0
   11.3222  -11.4107    0.0000 C    0  0  0  0  0  0  0  0  0  0  0  0
    9.6749  -12.6324    0.0000 C    0  0  0  0  0  0  0  0  0  0  0  0
   11.0877   -9.3731    0.0000 C    0  0  0  0  0  0  0  0  0  0  0  0
    7.7931  -11.8165    0.0000 C    0  0  0  0  0  0  0  0  0  0  0  0
    9.2060   -8.5574    0.0000 C    0  0  0  0  0  0  0  0  0  0  0  0
    7.5587   -9.7791    0.0000 C    0  0  0  0  0  0  0  0  0  0  0  0
   13.4383  -14.2638    0.0000 C    0  0  0  0  0  0  0  0  0  0  0  0
   15.3200  -15.0796    0.0000 C    0  0  0  0  0  0  0  0  0  0  0  0
   11.7909  -15.4857    0.0000 C    0  0  0  0  0  0  0  0  0  0  0  0
   15.5543  -17.1172    0.0000 C    0  0  0  0  0  0  0  0  0  0  0  0
   12.0253  -17.5231    0.0000 C    0  0  0  0  0  0  0  0  0  0  0  0
   13.9070  -18.3389    0.0000 C    0  0  0  0  0  0  0  0  0  0  0  0
   18.5559   -8.2524    0.0000 C    0  0  0  0  0  0  0  0  0  0  0  0
   19.9500   -8.8133    0.0000 C    0  0  0  0  0  0  0  0  0  0  0  0
   20.8794   -8.1082    0.0000 C    0  0  0  0  0  0  0  0  0  0  0  0
   11.5213  -13.8448    0.0000 C    0  0  0  0  0  0  0  0  0  0  0  0
   10.1433  -13.8608    0.0000 C    0  0  0  0  0  0  0  0  0  0  0  0
    8.9414  -15.1268    0.0000 C    0  0  0  0  0  0  0  0  0  0  0  0
   22.4818   -8.5569    0.0000 Sb   0  0  0  0  0  0  0  0  0  0  0  0
    8.4287  -16.0401    0.0000 Sb   0  0  0  0  0  0  0  0  0  0  0  0
   23.9482   -7.1230    0.0000 C    0  0  0  0  0  0  0  0  0  0  0  0
   23.4396   -5.1362    0.0000 C    0  0  0  0  0  0  0  0  0  0  0  0
   25.9233   -7.6760    0.0000 C    0  0  0  0  0  0  0  0  0  0  0  0
   24.9062   -3.7023    0.0000 C    0  0  0  0  0  0  0  0  0  0  0  0
   27.3896   -6.2422    0.0000 C    0  0  0  0  0  0  0  0  0  0  0  0
   26.8810   -4.2553    0.0000 C    0  0  0  0  0  0  0  0  0  0  0  0
   22.9904  -10.5437    0.0000 C    0  0  0  0  0  0  0  0  0  0  0  0
   24.9653  -11.0967    0.0000 C    0  0  0  0  0  0  0  0  0  0  0  0
   21.5240  -11.9777    0.0000 C    0  0  0  0  0  0  0  0  0  0  0  0
   25.4738  -13.0837    0.0000 C    0  0  0  0  0  0  0  0  0  0  0  0
   22.0325  -13.9645    0.0000 C    0  0  0  0  0  0  0  0  0  0  0  0
   24.0075  -14.5175    0.0000 C    0  0  0  0  0  0  0  0  0  0  0  0
    6.3779  -16.0648    0.0000 C    0  0  0  0  0  0  0  0  0  0  0  0
    5.3739  -17.8532    0.0000 C    0  0  0  0  0  0  0  0  0  0  0  0
    5.3311  -14.3011    0.0000 C    0  0  0  0  0  0  0  0  0  0  0  0
    3.3230  -17.8778    0.0000 C    0  0  0  0  0  0  0  0  0  0  0  0
    3.2804  -14.3258    0.0000 C    0  0  0  0  0  0  0  0  0  0  0  0
    2.2764  -16.1141    0.0000 C    0  0  0  0  0  0  0  0  0  0  0  0
    9.4754  -17.8038    0.0000 C    0  0  0  0  0  0  0  0  0  0  0  0
   11.5262  -17.7791    0.0000 C    0  0  0  0  0  0  0  0  0  0  0  0
    8.4714  -19.5923    0.0000 C    0  0  0  0  0  0  0  0  0  0  0  0
   12.5729  -19.5429    0.0000 C    0  0  0  0  0  0  0  0  0  0  0  0
    9.5182  -21.3559    0.0000 C    0  0  0  0  0  0  0  0  0  0  0  0
   11.5689  -21.3312    0.0000 C    0  0  0  0  0  0  0  0  0  0  0  0
   28.9395  -10.9925    0.0000 I    0  5  0  0  0  0  0  0  0  0  0  0
  1  2  1  0  0  0  0
  1  3  1  0  0  0  0
  1  4  1  0  0  0  0
  1  5  1  0  0  0  0
  6  7  1  0  0  0  0
  6  8  2  0  0  0  0
  7  9  2  0  0  0  0
  8 10  1  0  0  0  0
  9 11  1  0  0  0  0
 10 11  2  0  0  0  0
  4  6  1  0  0  0  0
 12 13  1  0  0  0  0
 12 14  2  0  0  0  0
 13 15  2  0  0  0  0
 14 16  1  0  0  0  0
 15 17  1  0  0  0  0
 16 17  2  0  0  0  0
  4 12  1  0  0  0  0
 18 19  1  0  0  0  0
 18 20  2  0  0  0  0
 19 21  2  0  0  0  0
 20 22  1  0  0  0  0
 21 23  1  0  0  0  0
 22 23  2  0  0  0  0
  5 18  1  0  0  0  0
 24 25  1  0  0  0  0
 24 26  2  0  0  0  0
 25 27  2  0  0  0  0
 26 28  1  0  0  0  0
 27 29  1  0  0  0  0
 28 29  2  0  0  0  0
  5 24  1  0  0  0  0
  4 30  1  0  0  0  0
 30 31  1  0  0  0  0
 31 32  1  0  0  0  0
  5 33  1  0  0  0  0
 33 34  1  0  0  0  0
 34 35  1  0  0  0  0
 32 36  1  0  0  0  0
 35 37  1  0  0  0  0
 38 39  1  0  0  0  0
 38 40  2  0  0  0  0
 39 41  2  0  0  0  0
 40 42  1  0  0  0  0
 41 43  1  0  0  0  0
 42 43  2  0  0  0  0
 36 38  1  0  0  0  0
 44 45  1  0  0  0  0
 44 46  2  0  0  0  0
 45 47  2  0  0  0  0
 46 48  1  0  0  0  0
 47 49  1  0  0  0  0
 48 49  2  0  0  0  0
 36 44  1  0  0  0  0
 50 51  1  0  0  0  0
 50 52  2  0  0  0  0
 51 53  2  0  0  0  0
 52 54  1  0  0  0  0
 53 55  1  0  0  0  0
 54 55  2  0  0  0  0
 37 50  1  0  0  0  0
 56 57  1  0  0  0  0
 56 58  2  0  0  0  0
 57 59  2  0  0  0  0
 58 60  1  0  0  0  0
 59 61  1  0  0  0  0
 60 61  2  0  0  0  0
 37 56  1  0  0  0  0
M  END
> <NMREDATA_VERSION>
1.1

> <NMREDATA_LEVEL>
0

> <NMREDATA_SOLVENT>
CD2Cl2

> <NMREDATA_TEMPERATURE>
300

> <NMREDATA_FORMULA>
C54H55I3RhSb4

> <NMREDATA_SMILES>
I[Rh]([SbH](c1ccccc1)(c1ccccc1)CCC[Sb](c1ccccc1)c1ccccc1)([SbH](c1ccccc1)(c1ccccc1)CCC[Sb](c1ccccc1)c1ccccc1)I.I

> <NMREDATA_ASSIGNMENT>
Rh1, 1265.00, 1

> <NMREDATA_1D_103Rh>
1265.00, L=Rh1

$$$$

  ACD/LABS04042409572D

 32 32  0  0  0  0  0  0  0  0  2 V2000
   15.1268  -10.8002    0.0000 Rh   0  5  0  0  0  0  0  0  0  0  0  0
   13.6846   -9.3421    0.0000 I    0  0  0  0  0  0  0  0  0  0  0  0
   16.5208  -12.1142    0.0000 I    0  0  0  0  0  0  0  0  0  0  0  0
   16.8894   -9.6946    0.0000 Sb   0  3  0  0  0  0  0  0  0  0  0  0
   13.2039  -12.2264    0.0000 Sb   0  3  0  0  0  0  0  0  0  0  0  0
   18.7019  -10.6543    0.0000 C    0  0  0  0  0  0  0  0  0  0  0  0
   16.8143   -7.6451    0.0000 C    0  0  0  0  0  0  0  0  0  0  0  0
   14.1493  -13.6686    0.0000 C    0  0  0  0  0  0  0  0  0  0  0  0
   11.6014  -12.0982    0.0000 C    0  0  0  0  0  0  0  0  0  0  0  0
   18.6268   -8.6048    0.0000 C    0  0  0  0  0  0  0  0  0  0  0  0
   18.5517   -6.5553    0.0000 C    0  0  0  0  0  0  0  0  0  0  0  0
   20.4394   -9.5645    0.0000 C    0  0  0  0  0  0  0  0  0  0  0  0
   20.2893   -5.4655    0.0000 C    0  0  0  0  0  0  0  0  0  0  0  0
   22.1768   -8.4747    0.0000 C    0  0  0  0  0  0  0  0  0  0  0  0
   22.1017   -6.4252    0.0000 C    0  0  0  0  0  0  0  0  0  0  0  0
   12.6387  -10.2549    0.0000 C    0  0  0  0  0  0  0  0  0  0  0  0
   10.6488   -9.7585    0.0000 C    0  0  0  0  0  0  0  0  0  0  0  0
   14.0636   -8.7796    0.0000 C    0  0  0  0  0  0  0  0  0  0  0  0
   10.0838   -7.7869    0.0000 C    0  0  0  0  0  0  0  0  0  0  0  0
   13.4985   -6.8082    0.0000 C    0  0  0  0  0  0  0  0  0  0  0  0
   11.5086   -6.3118    0.0000 C    0  0  0  0  0  0  0  0  0  0  0  0
    9.0696  -11.0406    0.0000 Sb   0  0  0  0  0  0  0  0  0  0  0  0
   21.4563  -11.2329    0.0000 Sb   0  0  0  0  0  0  0  0  0  0  0  0
    7.3551  -10.6721    0.0000 C    0  0  0  0  0  0  0  0  0  0  0  0
    8.8774  -12.4187    0.0000 C    0  0  0  0  0  0  0  0  0  0  0  0
   21.6486  -12.4347    0.0000 C    0  0  0  0  0  0  0  0  0  0  0  0
   22.8824  -11.4252    0.0000 C    0  0  0  0  0  0  0  0  0  0  0  0
   28.8754  -10.0711    0.0000 B    0  5  0  0  0  0  0  0  0  0  0  0
   28.8754   -8.5328    0.0000 F    0  0  0  0  0  0  0  0  0  0  0  0
   30.4137  -10.0711    0.0000 F    0  0  0  0  0  0  0  0  0  0  0  0
   27.3371  -10.0711    0.0000 F    0  0  0  0  0  0  0  0  0  0  0  0
   28.8754  -11.6095    0.0000 F    0  0  0  0  0  0  0  0  0  0  0  0
  1  2  1  0  0  0  0
  1  3  1  0  0  0  0
  1  4  1  0  0  0  0
  1  5  1  0  0  0  0
  4  6  1  0  0  0  0
  4  7  1  0  0  0  0
  5  8  1  0  0  0  0
  5  9  1  0  0  0  0
 10 11  1  0  0  0  0
 10 12  2  0  0  0  0
 11 13  2  0  0  0  0
 12 14  1  0  0  0  0
 13 15  1  0  0  0  0
 14 15  2  0  0  0  0
  4 10  1  0  0  0  0
 16 17  1  0  0  0  0
 16 18  2  0  0  0  0
 17 19  2  0  0  0  0
 18 20  1  0  0  0  0
 19 21  1  0  0  0  0
 20 21  2  0  0  0  0
  5 16  1  0  0  0  0
 17 22  1  0  0  0  0
 12 23  1  0  0  0  0
 22 24  1  0  0  0  0
 22 25  1  0  0  0  0
 23 26  1  0  0  0  0
 23 27  1  0  0  0  0
 28 29  1  0  0  0  0
 28 30  1  0  0  0  0
 28 31  1  0  0  0  0
 28 32  1  0  0  0  0
M  END
> <NMREDATA_VERSION>
1.1

> <NMREDATA_LEVEL>
0

> <NMREDATA_SOLVENT>
CD2Cl2

> <NMREDATA_TEMPERATURE>
300

> <NMREDATA_FORMULA>
C20H34BF4I2RhSb4

> <NMREDATA_SMILES>
F[B](F)(F)F.C[Sb](c1ccccc1[SbH]([Rh]([SbH](c1ccccc1[Sb](C)C)(C)C)(I)I)(C)C)C

> <NMREDATA_ASSIGNMENT>
Rh1, 1131.00, 1

> <NMREDATA_1D_103Rh>
1131.00, L=Rh1

$$$$

  ACD/LABS04042409582D

 13 12  0  0  0  0  0  0  0  0  1 V2000
   15.7517  -10.3516    0.0000 Rh   0  0  0  0  0  0  0  0  0  0  0  0
   14.3095   -9.2940    0.0000 I    0  0  0  0  0  0  0  0  0  0  0  0
   16.0241   -8.7972    0.0000 I    0  0  0  0  0  0  0  0  0  0  0  0
   16.4728  -11.7617    0.0000 I    0  0  0  0  0  0  0  0  0  0  0  0
   17.2740   -9.2619    0.0000 Te   0  0  0  0  0  0  0  0  0  0  0  0
   17.7547  -10.4637    0.0000 Te   0  0  0  0  0  0  0  0  0  0  0  0
   14.4858  -11.5213    0.0000 Te   0  0  0  0  0  0  0  0  0  0  0  0
   17.1458   -8.1563    0.0000 C    0  0  0  0  0  0  0  0  0  0  0  0
   18.0271   -8.8934    0.0000 C    0  0  0  0  0  0  0  0  0  0  0  0
   18.9886  -10.0631    0.0000 C    0  0  0  0  0  0  0  0  0  0  0  0
   18.5880  -11.2970    0.0000 C    0  0  0  0  0  0  0  0  0  0  0  0
   14.6621  -12.4988    0.0000 C    0  0  0  0  0  0  0  0  0  0  0  0
   13.3961  -11.2970    0.0000 C    0  0  0  0  0  0  0  0  0  0  0  0
  1  2  1  0  0  0  0
  1  3  1  0  0  0  0
  1  4  1  0  0  0  0
  1  5  1  0  0  0  0
  1  6  1  0  0  0  0
  1  7  1  0  0  0  0
  5  8  1  0  0  0  0
  5  9  1  0  0  0  0
  6 10  1  0  0  0  0
  6 11  1  0  0  0  0
  7 12  1  0  0  0  0
  7 13  1  0  0  0  0
M  END
> <NMREDATA_VERSION>
1.1

> <NMREDATA_LEVEL>
0

> <NMREDATA_SOLVENT>
CD2Cl2

> <NMREDATA_FORMULA>
C6H21I3RhTe3

> <NMREDATA_SMILES>
C[TeH]([Rh]([TeH](C)C)([TeH](C)C)(I)(I)I)C

> <NMREDATA_ASSIGNMENT>
Rh1, 1352.00, 1

> <NMREDATA_1D_103Rh>
1352.00, L=Rh1

$$$$

  ACD/LABS04042409592D

 19 18  0  0  0  0  0  0  0  0  2 V2000
   17.6746  -11.1528    0.0000 Rh   0  7  0  0  0  0  0  0  0  0  0  0
   19.0046  -11.1528    0.0000 S    0  0  0  0  0  0  0  0  0  0  0  0
   19.6696  -10.0010    0.0000 C    0  0  0  0  0  0  0  0  0  0  0  0
   20.3346   -8.8491    0.0000 N    0  0  0  0  0  0  0  0  0  0  0  0
   17.0096  -10.0010    0.0000 S    0  0  0  0  0  0  0  0  0  0  0  0
   15.6796  -10.0010    0.0000 C    0  0  0  0  0  0  0  0  0  0  0  0
   14.3496  -10.0010    0.0000 N    0  0  0  0  0  0  0  0  0  0  0  0
   17.0096  -12.3046    0.0000 S    0  0  0  0  0  0  0  0  0  0  0  0
   17.6746  -13.4564    0.0000 C    0  0  0  0  0  0  0  0  0  0  0  0
   18.3396  -14.6082    0.0000 N    0  0  0  0  0  0  0  0  0  0  0  0
   18.3396  -10.0010    0.0000 S    0  0  0  0  0  0  0  0  0  0  0  0
   17.6746   -8.8491    0.0000 C    0  0  0  0  0  0  0  0  0  0  0  0
   17.0096   -7.6973    0.0000 N    0  0  0  0  0  0  0  0  0  0  0  0
   18.3396  -12.3046    0.0000 S    0  0  0  0  0  0  0  0  0  0  0  0
   19.6696  -12.3046    0.0000 C    0  0  0  0  0  0  0  0  0  0  0  0
   20.9996  -12.3046    0.0000 N    0  0  0  0  0  0  0  0  0  0  0  0
   16.3446  -11.1528    0.0000 S    0  0  0  0  0  0  0  0  0  0  0  0
   15.6796  -12.3046    0.0000 C    0  0  0  0  0  0  0  0  0  0  0  0
   15.0146  -13.4564    0.0000 N    0  0  0  0  0  0  0  0  0  0  0  0
  2  3  1  0  0  0  0
  3  4  3  0  0  0  0
  1  2  1  0  0  0  0
  5  6  1  0  0  0  0
  6  7  3  0  0  0  0
  1  5  1  0  0  0  0
  8  9  1  0  0  0  0
  9 10  3  0  0  0  0
  1  8  1  0  0  0  0
 11 12  1  0  0  0  0
 12 13  3  0  0  0  0
  1 11  1  0  0  0  0
 14 15  1  0  0  0  0
 15 16  3  0  0  0  0
  1 14  1  0  0  0  0
 17 18  1  0  0  0  0
 18 19  3  0  0  0  0
  1 17  1  0  0  0  0
M  END
> <NMREDATA_VERSION>
1.1

> <NMREDATA_LEVEL>
0

> <NMREDATA_SOLVENT>
CD2Cl2

> <NMREDATA_TEMPERATURE>
243

> <NMREDATA_FORMULA>
C6N6RhS6

> <NMREDATA_SMILES>
N#CS[Rh](SC#N)(SC#N)(SC#N)(SC#N)SC#N

> <NMREDATA_ASSIGNMENT>
Rh1, 2791.00, 1

> <NMREDATA_1D_103Rh>
2791.00, L=Rh1

$$$$

  ACD/LABS04042409592D

 19 18  0  0  0  0  0  0  0  0  2 V2000
   17.6746  -11.1528    0.0000 Rh   0  7  0  0  0  0  0  0  0  0  0  0
   19.0046  -11.1528    0.0000 S    0  0  0  0  0  0  0  0  0  0  0  0
   19.6696  -10.0010    0.0000 C    0  0  0  0  0  0  0  0  0  0  0  0
   20.3346   -8.8491    0.0000 N    0  0  0  0  0  0  0  0  0  0  0  0
   17.0096  -10.0010    0.0000 S    0  0  0  0  0  0  0  0  0  0  0  0
   15.6796  -10.0010    0.0000 C    0  0  0  0  0  0  0  0  0  0  0  0
   14.3496  -10.0010    0.0000 N    0  0  0  0  0  0  0  0  0  0  0  0
   17.0096  -12.3046    0.0000 S    0  0  0  0  0  0  0  0  0  0  0  0
   17.6746  -13.4564    0.0000 C    0  0  0  0  0  0  0  0  0  0  0  0
   18.3396  -14.6082    0.0000 N    0  0  0  0  0  0  0  0  0  0  0  0
   18.3396  -10.0010    0.0000 S    0  0  0  0  0  0  0  0  0  0  0  0
   17.6746   -8.8491    0.0000 C    0  0  0  0  0  0  0  0  0  0  0  0
   17.0096   -7.6973    0.0000 N    0  0  0  0  0  0  0  0  0  0  0  0
   18.3396  -12.3046    0.0000 S    0  0  0  0  0  0  0  0  0  0  0  0
   19.6696  -12.3046    0.0000 C    0  0  0  0  0  0  0  0  0  0  0  0
   20.9996  -12.3046    0.0000 N    0  0  0  0  0  0  0  0  0  0  0  0
   16.3446  -11.1528    0.0000 S    0  0  0  0  0  0  0  0  0  0  0  0
   15.6796  -12.3046    0.0000 C    0  0  0  0  0  0  0  0  0  0  0  0
   15.0146  -13.4564    0.0000 N    0  0  0  0  0  0  0  0  0  0  0  0
  2  3  1  0  0  0  0
  3  4  3  0  0  0  0
  1  2  1  0  0  0  0
  5  6  1  0  0  0  0
  6  7  3  0  0  0  0
  1  5  1  0  0  0  0
  8  9  1  0  0  0  0
  9 10  3  0  0  0  0
  1  8  1  0  0  0  0
 11 12  1  0  0  0  0
 12 13  3  0  0  0  0
  1 11  1  0  0  0  0
 14 15  1  0  0  0  0
 15 16  3  0  0  0  0
  1 14  1  0  0  0  0
 17 18  1  0  0  0  0
 18 19  3  0  0  0  0
  1 17  1  0  0  0  0
M  END
> <NMREDATA_VERSION>
1.1

> <NMREDATA_LEVEL>
0

> <NMREDATA_SOLVENT>
H2O

> <NMREDATA_TEMPERATURE>
298

> <NMREDATA_FORMULA>
C6N6RhS6

> <NMREDATA_SMILES>
N#CS[Rh](SC#N)(SC#N)(SC#N)(SC#N)SC#N

> <NMREDATA_ASSIGNMENT>
Rh1, 2726.00, 1

> <NMREDATA_1D_103Rh>
2726.00, L=Rh1

$$$$

  ACD/LABS04042410012D

 28 27  0  0  0  0  0  0  0  0  1 V2000
   14.0997  -10.5470    0.0000 S    0  0  0  0  0  0  0  0  0  0  0  0
   13.2664  -11.9902    0.0000 S    0  0  0  0  0  0  0  0  0  0  0  0
   11.5999  -11.9902    0.0000 P    0  0  0  0  0  0  0  0  0  0  0  0
   10.7666  -13.4335    0.0000 O    0  0  0  0  0  0  0  0  0  0  0  0
   10.7666  -10.5470    0.0000 O    0  0  0  0  0  0  0  0  0  0  0  0
    9.1001  -13.4335    0.0000 C    0  0  0  0  0  0  0  0  0  0  0  0
    8.2669  -14.8767    0.0000 C    0  0  0  0  0  0  0  0  0  0  0  0
   11.5999   -9.1037    0.0000 C    0  0  0  0  0  0  0  0  0  0  0  0
   10.7666   -7.6605    0.0000 C    0  0  0  0  0  0  0  0  0  0  0  0
   16.5994   -9.1037    0.0000 S    0  0  0  0  0  0  0  0  0  0  0  0
   18.2659   -9.1037    0.0000 S    0  0  0  0  0  0  0  0  0  0  0  0
   19.0992   -7.6605    0.0000 P    0  0  0  0  0  0  0  0  0  0  0  0
   18.2659   -6.2173    0.0000 O    0  0  0  0  0  0  0  0  0  0  0  0
   20.7657   -7.6605    0.0000 O    0  0  0  0  0  0  0  0  0  0  0  0
   16.5994   -6.2173    0.0000 C    0  0  0  0  0  0  0  0  0  0  0  0
   15.7662   -4.7740    0.0000 C    0  0  0  0  0  0  0  0  0  0  0  0
   21.5989   -9.1037    0.0000 C    0  0  0  0  0  0  0  0  0  0  0  0
   23.2654   -9.1037    0.0000 C    0  0  0  0  0  0  0  0  0  0  0  0
   15.7662  -10.5470    0.0000 Rh   0  0  0  0  0  0  0  0  0  0  0  0
   16.5994  -11.9902    0.0000 S    0  0  0  0  0  0  0  0  0  0  0  0
   18.2659  -11.9902    0.0000 S    0  0  0  0  0  0  0  0  0  0  0  0
   19.0992  -13.4335    0.0000 P    0  0  0  0  0  0  0  0  0  0  0  0
   20.7657  -13.4335    0.0000 O    0  0  0  0  0  0  0  0  0  0  0  0
   18.2659  -14.8767    0.0000 O    0  0  0  0  0  0  0  0  0  0  0  0
   21.5989  -11.9902    0.0000 C    0  0  0  0  0  0  0  0  0  0  0  0
   23.2654  -11.9902    0.0000 C    0  0  0  0  0  0  0  0  0  0  0  0
   16.5994  -14.8767    0.0000 C    0  0  0  0  0  0  0  0  0  0  0  0
   15.7662  -16.3199    0.0000 C    0  0  0  0  0  0  0  0  0  0  0  0
  1  2  1  0  0  0  0
  2  3  1  0  0  0  0
  3  4  1  0  0  0  0
  3  5  1  0  0  0  0
  4  6  1  0  0  0  0
  6  7  1  0  0  0  0
  5  8  1  0  0  0  0
  8  9  1  0  0  0  0
 10 11  1  0  0  0  0
 11 12  1  0  0  0  0
 12 13  1  0  0  0  0
 12 14  1  0  0  0  0
 13 15  1  0  0  0  0
 15 16  1  0  0  0  0
 14 17  1  0  0  0  0
 17 18  1  0  0  0  0
 19 20  1  0  0  0  0
 20 21  1  0  0  0  0
 21 22  1  0  0  0  0
 22 23  1  0  0  0  0
 22 24  1  0  0  0  0
 23 25  1  0  0  0  0
 25 26  1  0  0  0  0
 24 27  1  0  0  0  0
 27 28  1  0  0  0  0
 10 19  1  0  0  0  0
  1 19  1  0  0  0  0
M  END
> <NMREDATA_VERSION>
1.1

> <NMREDATA_LEVEL>
0

> <NMREDATA_SOLVENT>
DCCl3

> <NMREDATA_TEMPERATURE>
298

> <NMREDATA_FORMULA>
C12H30O6P3RhS6

> <NMREDATA_SMILES>
CCOP(SS[Rh](SSP(OCC)OCC)SSP(OCC)OCC)OCC

> <NMREDATA_ASSIGNMENT>
Rh19, 3665.00, 19

> <NMREDATA_1D_103Rh>
3665.00, L=Rh19

$$$$

  ACD/LABS04042410022D

 36 34  0  0  0  0  0  0  0  0  2 V2000
   17.2259  -10.6721    0.0000 Rh   0  7  0  0  0  0  0  0  0  0  0  0
   17.3060   -8.4287    0.0000 Se   0  0  0  0  0  0  0  0  0  0  0  0
   19.1969   -9.7106    0.0000 Se   0  0  0  0  0  0  0  0  0  0  0  0
   18.9725  -11.7937    0.0000 Se   0  0  0  0  0  0  0  0  0  0  0  0
   16.9215  -12.9795    0.0000 Se   0  0  0  0  0  0  0  0  0  0  0  0
   15.0306  -11.9219    0.0000 Se   0  0  0  0  0  0  0  0  0  0  0  0
   15.1908   -9.5183    0.0000 Se   0  0  0  0  0  0  0  0  0  0  0  0
   19.3619   -7.3376    0.0000 C    0  0  0  0  0  0  0  0  0  0  0  0
   21.4178   -6.2466    0.0000 N    0  0  0  0  0  0  0  0  0  0  0  0
   21.1265  -11.0120    0.0000 C    0  0  0  0  0  0  0  0  0  0  0  0
   23.0561  -12.3134    0.0000 N    0  0  0  0  0  0  0  0  0  0  0  0
   18.8625  -14.1186    0.0000 C    0  0  0  0  0  0  0  0  0  0  0  0
   18.7525  -16.4435    0.0000 N    0  0  0  0  0  0  0  0  0  0  0  0
   14.7709  -13.8696    0.0000 C    0  0  0  0  0  0  0  0  0  0  0  0
   12.6203  -14.7596    0.0000 N    0  0  0  0  0  0  0  0  0  0  0  0
   13.0220  -10.7461    0.0000 C    0  0  0  0  0  0  0  0  0  0  0  0
   11.0134   -9.5702    0.0000 N    0  0  0  0  0  0  0  0  0  0  0  0
   15.1726   -7.1909    0.0000 C    0  0  0  0  0  0  0  0  0  0  0  0
   15.1543   -4.8635    0.0000 N    0  0  0  0  0  0  0  0  0  0  0  0
   28.3386   -9.9108    0.0000 N    0  3  0  0  0  0  0  0  0  0  0  0
   28.7873   -9.1337    0.0000 C    0  0  0  0  0  0  0  0  0  0  0  0
   28.3386   -8.3566    0.0000 C    0  0  0  0  0  0  0  0  0  0  0  0
   28.7873   -7.5794    0.0000 C    0  0  0  0  0  0  0  0  0  0  0  0
   28.3386   -6.8023    0.0000 C    0  0  0  0  0  0  0  0  0  0  0  0
   29.1157  -10.3595    0.0000 C    0  0  0  0  0  0  0  0  0  0  0  0
   29.1157  -11.2568    0.0000 C    0  0  0  0  0  0  0  0  0  0  0  0
   29.8928  -11.7055    0.0000 C    0  0  0  0  0  0  0  0  0  0  0  0
   29.8928  -12.6029    0.0000 C    0  0  0  0  0  0  0  0  0  0  0  0
   27.5615   -9.4621    0.0000 C    0  0  0  0  0  0  0  0  0  0  0  0
   26.7843   -9.9108    0.0000 C    0  0  0  0  0  0  0  0  0  0  0  0
   26.0072   -9.4622    0.0000 C    0  0  0  0  0  0  0  0  0  0  0  0
   25.2301   -9.9108    0.0000 C    0  0  0  0  0  0  0  0  0  0  0  0
   27.8899  -10.6880    0.0000 C    0  0  0  0  0  0  0  0  0  0  0  0
   26.9926  -10.6880    0.0000 C    0  0  0  0  0  0  0  0  0  0  0  0
   26.5439  -11.4651    0.0000 C    0  0  0  0  0  0  0  0  0  0  0  0
   25.6465  -11.4651    0.0000 C    0  0  0  0  0  0  0  0  0  0  0  0
  1  2  1  0  0  0  0
  1  3  1  0  0  0  0
  1  4  1  0  0  0  0
  1  5  1  0  0  0  0
  1  6  1  0  0  0  0
  1  7  1  0  0  0  0
  8  9  3  0  0  0  0
  2  8  1  0  0  0  0
 10 11  3  0  0  0  0
  3 10  1  0  0  0  0
 12 13  3  0  0  0  0
  4 12  1  0  0  0  0
 14 15  3  0  0  0  0
  5 14  1  0  0  0  0
 16 17  3  0  0  0  0
  6 16  1  0  0  0  0
 18 19  3  0  0  0  0
  7 18  1  0  0  0  0
 20 21  1  0  0  0  0
 21 22  1  0  0  0  0
 22 23  1  0  0  0  0
 23 24  1  0  0  0  0
 20 25  1  0  0  0  0
 25 26  1  0  0  0  0
 26 27  1  0  0  0  0
 27 28  1  0  0  0  0
 20 29  1  0  0  0  0
 29 30  1  0  0  0  0
 30 31  1  0  0  0  0
 31 32  1  0  0  0  0
 20 33  1  0  0  0  0
 33 34  1  0  0  0  0
 34 35  1  0  0  0  0
 35 36  1  0  0  0  0
M  END
> <NMREDATA_VERSION>
1.1

> <NMREDATA_LEVEL>
0

> <NMREDATA_SOLVENT>
CD2Cl2

> <NMREDATA_TEMPERATURE>
243

> <NMREDATA_FORMULA>
C22H37N7RhSe6

> <NMREDATA_SMILES>
N#C[Se][Rh]([Se]C#N)([Se]C#N)([Se]C#N)([Se]C#N)[Se]C#N.CCCCN(CCCC)(CCCC)CCCC

> <NMREDATA_ASSIGNMENT>
Rh1, 2287.00, 1

> <NMREDATA_1D_103Rh>
2287.00, L=Rh1

$$$$

  ACD/LABS04072410482D

 48 52  0  0  0  0  0  0  0  0  2 V2000
   10.3676   -7.5634    0.0000 Rh   0  5  0  0  0  0  0  0  0  0  0  0
   10.3748   -5.1577    0.0000 C    0  0  0  0  0  0  0  0  0  0  0  0
   12.7651   -7.5566    0.0000 C    0  0  0  0  0  0  0  0  0  0  0  0
    7.9701   -7.5701    0.0000 C    0  0  0  0  0  0  0  0  0  0  0  0
   10.3744   -9.9609    0.0000 C    0  0  0  0  0  0  0  0  0  0  0  0
   10.3600   -2.7462    0.0000 O    0  0  0  0  0  0  0  0  0  0  0  0
   15.1848   -7.5558    0.0000 O    0  0  0  0  0  0  0  0  0  0  0  0
    5.5504   -7.5710    0.0000 O    0  0  0  0  0  0  0  0  0  0  0  0
   10.3752  -12.3806    0.0000 O    0  0  0  0  0  0  0  0  0  0  0  0
   31.1512   -6.5218    0.0000 C    0  0  0  0  0  0  0  0  0  0  0  0
   31.1512   -7.8518    0.0000 C    0  0  0  0  0  0  0  0  0  0  0  0
   29.9994   -5.8568    0.0000 C    0  0  0  0  0  0  0  0  0  0  0  0
   29.9994   -8.5168    0.0000 C    0  0  0  0  0  0  0  0  0  0  0  0
   28.8476   -6.5218    0.0000 C    0  0  0  0  0  0  0  0  0  0  0  0
   28.8476   -7.8518    0.0000 C    0  0  0  0  0  0  0  0  0  0  0  0
   29.6907   -2.4014    0.0000 C    0  0  0  0  0  0  0  0  0  0  0  0
   30.3557   -3.5532    0.0000 C    0  0  0  0  0  0  0  0  0  0  0  0
   28.3607   -2.4014    0.0000 C    0  0  0  0  0  0  0  0  0  0  0  0
   29.6907   -4.7050    0.0000 C    0  0  0  0  0  0  0  0  0  0  0  0
   27.6957   -3.5532    0.0000 C    0  0  0  0  0  0  0  0  0  0  0  0
   28.3607   -4.7050    0.0000 C    0  0  0  0  0  0  0  0  0  0  0  0
   25.0357   -8.1604    0.0000 C    0  0  0  0  0  0  0  0  0  0  0  0
   25.7007   -7.0086    0.0000 C    0  0  0  0  0  0  0  0  0  0  0  0
   25.7007   -9.3123    0.0000 C    0  0  0  0  0  0  0  0  0  0  0  0
   27.0307   -7.0086    0.0000 C    0  0  0  0  0  0  0  0  0  0  0  0
   27.0307   -9.3123    0.0000 C    0  0  0  0  0  0  0  0  0  0  0  0
   27.6957   -8.1604    0.0000 C    0  0  0  0  0  0  0  0  0  0  0  0
   24.2403   -6.5218    0.0000 C    0  0  0  0  0  0  0  0  0  0  0  0
   24.2403   -7.8518    0.0000 C    0  0  0  0  0  0  0  0  0  0  0  0
   23.0885   -5.8568    0.0000 C    0  0  0  0  0  0  0  0  0  0  0  0
   23.0885   -8.5168    0.0000 C    0  0  0  0  0  0  0  0  0  0  0  0
   21.9367   -6.5218    0.0000 C    0  0  0  0  0  0  0  0  0  0  0  0
   21.9367   -7.8518    0.0000 C    0  0  0  0  0  0  0  0  0  0  0  0
   25.3921   -8.1604    0.0000 C    0  0  0  0  0  0  0  0  0  0  0  0
   26.0571   -7.0086    0.0000 C    0  0  0  0  0  0  0  0  0  0  0  0
   26.0571   -9.3123    0.0000 C    0  0  0  0  0  0  0  0  0  0  0  0
   27.3871   -7.0086    0.0000 C    0  0  0  0  0  0  0  0  0  0  0  0
   27.3871   -9.3123    0.0000 C    0  0  0  0  0  0  0  0  0  0  0  0
   28.0521   -8.1604    0.0000 C    0  0  0  0  0  0  0  0  0  0  0  0
   24.7271   -2.4014    0.0000 C    0  0  0  0  0  0  0  0  0  0  0  0
   25.3921   -3.5532    0.0000 C    0  0  0  0  0  0  0  0  0  0  0  0
   23.3971   -2.4014    0.0000 C    0  0  0  0  0  0  0  0  0  0  0  0
   24.7271   -4.7050    0.0000 C    0  0  0  0  0  0  0  0  0  0  0  0
   22.7321   -3.5532    0.0000 C    0  0  0  0  0  0  0  0  0  0  0  0
   23.3971   -4.7050    0.0000 C    0  0  0  0  0  0  0  0  0  0  0  0
   26.5439   -5.1918    0.0000 N    0  3  0  0  0  0  0  0  0  0  0  0
   25.3921   -5.8568    0.0000 P    0  0  0  0  0  0  0  0  0  0  0  0
   27.6957   -5.8568    0.0000 P    0  0  0  0  0  0  0  0  0  0  0  0
  1  2  1  0  0  0  0
  1  3  1  0  0  0  0
  1  4  1  0  0  0  0
  1  5  1  0  0  0  0
  2  6  3  0  0  0  0
  3  7  3  0  0  0  0
  4  8  3  0  0  0  0
  5  9  3  0  0  0  0
 10 11  1  0  0  0  0
 10 12  2  0  0  0  0
 11 13  2  0  0  0  0
 12 14  1  0  0  0  0
 13 15  1  0  0  0  0
 14 15  2  0  0  0  0
 16 17  1  0  0  0  0
 16 18  2  0  0  0  0
 17 19  2  0  0  0  0
 18 20  1  0  0  0  0
 19 21  1  0  0  0  0
 20 21  2  0  0  0  0
 22 23  1  0  0  0  0
 22 24  2  0  0  0  0
 23 25  2  0  0  0  0
 24 26  1  0  0  0  0
 25 27  1  0  0  0  0
 26 27  2  0  0  0  0
 28 29  1  0  0  0  0
 28 30  2  0  0  0  0
 29 31  2  0  0  0  0
 30 32  1  0  0  0  0
 31 33  1  0  0  0  0
 32 33  2  0  0  0  0
 34 35  1  0  0  0  0
 34 36  2  0  0  0  0
 35 37  2  0  0  0  0
 36 38  1  0  0  0  0
 37 39  1  0  0  0  0
 38 39  2  0  0  0  0
 40 41  1  0  0  0  0
 40 42  2  0  0  0  0
 41 43  2  0  0  0  0
 42 44  1  0  0  0  0
 43 45  1  0  0  0  0
 44 45  2  0  0  0  0
 46 47  2  0  0  0  0
 46 48  2  0  0  0  0
 43 47  1  0  0  0  0
 35 47  1  0  0  0  0
 28 47  1  0  0  0  0
 25 48  1  0  0  0  0
 21 48  1  0  0  0  0
 14 48  1  0  0  0  0
M  END
> <NMREDATA_VERSION>
1.1

> <NMREDATA_LEVEL>
0

> <NMREDATA_SOLVENT>
CD3CN

> <NMREDATA_TEMPERATURE>
298

> <NMREDATA_FORMULA>
C40H31NO4P2Rh

> <NMREDATA_SMILES>
c1ccc(cc1)P(=N=P(c1ccccc1)(c1ccccc1)c1ccccc1)(c1ccccc1)c1ccccc1.[O]#C[Rh](C#[O])(C#[O])C#[O]

> <NMREDATA_ASSIGNMENT>
Rh1, -644.00, 1

> <NMREDATA_1D_103Rh>
-644.00, L=Rh1

$$$$

  ACD/LABS04072411362D

 29 29  0  0  0  0  0  0  0  0  1 V2000
   20.7406  -11.0965    0.0000 C    0  0  0  0  0  0  0  0  0  0  0  0
   21.2816  -12.3115    0.0000 C    0  0  0  0  0  0  0  0  0  0  0  0
   19.4179  -11.2355    0.0000 C    0  0  0  0  0  0  0  0  0  0  0  0
   20.2932  -13.2014    0.0000 C    0  0  0  0  0  0  0  0  0  0  0  0
   19.1414  -12.5364    0.0000 C    0  0  0  0  0  0  0  0  0  0  0  0
   20.4307  -13.7807    0.0000 Si   0  0  0  0  0  0  0  0  0  0  0  0
   22.2735  -13.9089    0.0000 C    0  0  0  0  0  0  0  0  0  0  0  0
   22.8570  -15.1041    0.0000 C    0  0  0  0  0  0  0  0  0  0  0  0
   21.2159  -14.4217    0.0000 C    0  0  0  0  0  0  0  0  0  0  0  0
   21.0027  -15.7345    0.0000 C    0  0  0  0  0  0  0  0  0  0  0  0
   20.2064  -14.4698    0.0000 C    0  0  0  0  0  0  0  0  0  0  0  0
   18.9053  -14.7455    0.0000 C    0  0  0  0  0  0  0  0  0  0  0  0
   17.5105  -10.5379    0.0000 Rh   0  0  0  0  0  0  0  0  0  0  0  0
   16.2591   -7.7273    0.0000 H    0  0  0  0  0  0  0  0  0  0  0  0
   16.8709  -13.5473    0.0000 H    0  0  0  0  0  0  0  0  0  0  0  0
   19.7969   -8.4793    0.0000 Si   0  0  0  0  0  0  0  0  0  0  0  0
   14.4507  -10.8595    0.0000 Si   0  0  0  0  0  0  0  0  0  0  0  0
   21.8556  -10.7657    0.0000 C    0  0  0  0  0  0  0  0  0  0  0  0
   22.0833   -6.4206    0.0000 C    0  0  0  0  0  0  0  0  0  0  0  0
   14.7723  -13.9193    0.0000 C    0  0  0  0  0  0  0  0  0  0  0  0
   11.3910  -11.1811    0.0000 C    0  0  0  0  0  0  0  0  0  0  0  0
   12.9314   -9.1978    0.0000 C    0  0  0  0  0  0  0  0  0  0  0  0
   13.3328   -7.9298    0.0000 C    0  0  0  0  0  0  0  0  0  0  0  0
   10.6092  -10.1051    0.0000 C    0  0  0  0  0  0  0  0  0  0  0  0
   13.6964  -14.7011    0.0000 C    0  0  0  0  0  0  0  0  0  0  0  0
   18.7802   -6.8583    0.0000 C    0  0  0  0  0  0  0  0  0  0  0  0
   19.4027   -5.6830    0.0000 C    0  0  0  0  0  0  0  0  0  0  0  0
   23.3482   -6.8316    0.0000 C    0  0  0  0  0  0  0  0  0  0  0  0
   24.0522   -9.9189    0.0000 C    0  0  0  0  0  0  0  0  0  0  0  0
  1  2  2  0  0  0  0
  1  3  1  0  0  0  0
  2  4  1  0  0  0  0
  3  5  2  0  0  0  0
  4  5  1  0  0  0  0
  4  6  1  0  0  0  0
  6  7  1  0  0  0  0
  7  8  1  0  0  0  0
  6  9  1  0  0  0  0
  9 10  1  0  0  0  0
  6 11  1  0  0  0  0
 11 12  1  0  0  0  0
 13 14  1  0  0  0  0
 13 15  1  0  0  0  0
 13 16  1  0  0  0  0
 13 17  1  0  0  0  0
 16 18  1  0  0  0  0
 16 19  1  0  0  0  0
 17 20  1  0  0  0  0
 17 21  1  0  0  0  0
 17 22  1  0  0  0  0
 22 23  1  0  0  0  0
 21 24  1  0  0  0  0
 20 25  1  0  0  0  0
 16 26  1  0  0  0  0
 26 27  1  0  0  0  0
 19 28  1  0  0  0  0
 18 29  1  0  0  0  0
  3 13  1  0  0  0  0
M  END
> <NMREDATA_VERSION>
1.1

> <NMREDATA_LEVEL>
0

> <NMREDATA_SOLVENT>
toluene-d8

> <NMREDATA_FORMULA>
C23H51RhSi3

> <NMREDATA_SMILES>
CC[Si](C1C=CC(=C1)[RhH2]([Si](CC)(CC)CC)[Si](CC)(CC)CC)(CC)CC

> <NMREDATA_ASSIGNMENT>
Rh13, -1908.00, 13

> <NMREDATA_1D_103Rh>
-1908.00, L=Rh13

$$$$

  ACD/LABS04092416062D

 68 73  0  0  0  0  0  0  0  0  2 V2000
   19.2967  -10.9407    0.0000 C    0  0  0  0  0  0  0  0  0  0  0  0
   19.2967  -11.6940    0.0000 C    0  0  0  0  0  0  0  0  0  0  0  0
   18.6390  -10.5692    0.0000 C    0  0  0  0  0  0  0  0  0  0  0  0
   18.6488  -12.0759    0.0000 C    0  0  0  0  0  0  0  0  0  0  0  0
   17.9911  -10.9508    0.0000 C    0  0  0  0  0  0  0  0  0  0  0  0
   17.9962  -11.6991    0.0000 C    0  0  0  0  0  0  0  0  0  0  0  0
   18.6390   -9.8159    0.0000 P    0  0  0  0  0  0  0  0  0  0  0  0
   18.6339   -9.0679    0.0000 C    0  0  0  0  0  0  0  0  0  0  0  0
   19.2818   -8.6861    0.0000 C    0  0  0  0  0  0  0  0  0  0  0  0
   17.9759   -8.6911    0.0000 C    0  0  0  0  0  0  0  0  0  0  0  0
   19.2818   -7.9327    0.0000 C    0  0  0  0  0  0  0  0  0  0  0  0
   17.9759   -7.9378    0.0000 C    0  0  0  0  0  0  0  0  0  0  0  0
   18.6238   -7.5613    0.0000 C    0  0  0  0  0  0  0  0  0  0  0  0
   19.3923   -9.8108    0.0000 C    0  0  0  0  0  0  0  0  0  0  0  0
   19.7638   -9.1633    0.0000 C    0  0  0  0  0  0  0  0  0  0  0  0
   19.7688  -10.4638    0.0000 C    0  0  0  0  0  0  0  0  0  0  0  0
   20.5171   -9.1582    0.0000 C    0  0  0  0  0  0  0  0  0  0  0  0
   20.5222  -10.4587    0.0000 C    0  0  0  0  0  0  0  0  0  0  0  0
   20.8987   -9.8007    0.0000 C    0  0  0  0  0  0  0  0  0  0  0  0
   13.6270   -8.8469    0.0000 C    0  0  0  0  0  0  0  0  0  0  0  0
   13.4914   -8.1034    0.0000 C    0  0  0  0  0  0  0  0  0  0  0  0
   14.3353   -9.0980    0.0000 C    0  0  0  0  0  0  0  0  0  0  0  0
   14.0690   -7.6164    0.0000 C    0  0  0  0  0  0  0  0  0  0  0  0
   14.9129   -8.6158    0.0000 C    0  0  0  0  0  0  0  0  0  0  0  0
   14.7771   -7.8726    0.0000 C    0  0  0  0  0  0  0  0  0  0  0  0
   16.9965   -9.8210    0.0000 Rh   0  5  0  0  0  0  0  0  0  0  0  0
   17.8604   -9.2133    0.0000 H    0  0  0  0  0  0  0  0  0  0  0  0
   17.3683   -9.1734    0.0000 H    0  0  0  0  0  0  0  0  0  0  0  0
   16.1780  -11.2523    0.0000 Sn   0  0  0  0  0  4  0  0  0  0  0  0
   16.1681   -8.4099    0.0000 Sn   0  0  0  0  0  4  0  0  0  0  0  0
   15.4452  -11.1215    0.0000 C    0  0  0  0  0  0  0  0  0  0  0  0
   16.9212  -11.3777    0.0000 C    0  0  0  0  0  0  0  0  0  0  0  0
   16.3087  -11.9904    0.0000 C    0  0  0  0  0  0  0  0  0  0  0  0
   16.8157   -8.0284    0.0000 C    0  0  0  0  0  0  0  0  0  0  0  0
   15.4651   -8.6712    0.0000 C    0  0  0  0  0  0  0  0  0  0  0  0
   15.7916   -7.7621    0.0000 C    0  0  0  0  0  0  0  0  0  0  0  0
   17.1824  -12.0857    0.0000 C    0  0  0  0  0  0  0  0  0  0  0  0
   16.7004  -12.6633    0.0000 C    0  0  0  0  0  0  0  0  0  0  0  0
   16.9566  -13.3713    0.0000 C    0  0  0  0  0  0  0  0  0  0  0  0
   14.9629  -11.6991    0.0000 C    0  0  0  0  0  0  0  0  0  0  0  0
   14.9629  -12.4524    0.0000 C    0  0  0  0  0  0  0  0  0  0  0  0
   14.3150  -12.8292    0.0000 C    0  0  0  0  0  0  0  0  0  0  0  0
   16.1580   -7.1041    0.0000 C    0  0  0  0  0  0  0  0  0  0  0  0
   15.7865   -6.4562    0.0000 C    0  0  0  0  0  0  0  0  0  0  0  0
   16.1529   -5.8035    0.0000 C    0  0  0  0  0  0  0  0  0  0  0  0
   15.7365  -12.4726    0.0000 C    0  0  0  0  0  0  0  0  0  0  0  0
   15.8670  -13.2158    0.0000 C    0  0  0  0  0  0  0  0  0  0  0  0
   15.2894  -13.6978    0.0000 C    0  0  0  0  0  0  0  0  0  0  0  0
   16.8109   -7.2750    0.0000 C    0  0  0  0  0  0  0  0  0  0  0  0
   17.4636   -6.8982    0.0000 C    0  0  0  0  0  0  0  0  0  0  0  0
   17.4588   -6.1449    0.0000 C    0  0  0  0  0  0  0  0  0  0  0  0
   15.3397   -9.4144    0.0000 C    0  0  0  0  0  0  0  0  0  0  0  0
   15.9221   -9.8913    0.0000 C    0  0  0  0  0  0  0  0  0  0  0  0
   15.7916  -10.6345    0.0000 C    0  0  0  0  0  0  0  0  0  0  0  0
   17.3733  -10.4736    0.0000 H    0  0  0  0  0  0  0  0  0  0  0  0
   14.4708   -9.8359    0.0000 P    0  0  0  0  0  0  0  0  0  0  0  0
   14.2147  -10.5439    0.0000 C    0  0  0  0  0  0  0  0  0  0  0  0
   14.6013  -11.1968    0.0000 C    0  0  0  0  0  0  0  0  0  0  0  0
   13.4613  -10.5540    0.0000 C    0  0  0  0  0  0  0  0  0  0  0  0
   14.2299  -11.8498    0.0000 C    0  0  0  0  0  0  0  0  0  0  0  0
   13.0947  -11.2120    0.0000 C    0  0  0  0  0  0  0  0  0  0  0  0
   13.4765  -11.8599    0.0000 C    0  0  0  0  0  0  0  0  0  0  0  0
   12.8537  -10.1272    0.0000 C    0  0  0  0  0  0  0  0  0  0  0  0
   12.3667   -9.5550    0.0000 C    0  0  0  0  0  0  0  0  0  0  0  0
   12.5975  -10.8352    0.0000 C    0  0  0  0  0  0  0  0  0  0  0  0
   11.6232   -9.6905    0.0000 C    0  0  0  0  0  0  0  0  0  0  0  0
   11.8543  -10.9708    0.0000 C    0  0  0  0  0  0  0  0  0  0  0  0
   11.3673  -10.3935    0.0000 C    0  0  0  0  0  0  0  0  0  0  0  0
  1  2  1  0  0  0  0
  1  3  2  0  0  0  0
  2  4  2  0  0  0  0
  3  5  1  0  0  0  0
  4  6  1  0  0  0  0
  5  6  2  0  0  0  0
  8  9  1  0  0  0  0
  8 10  2  0  0  0  0
  9 11  2  0  0  0  0
 10 12  1  0  0  0  0
 11 13  1  0  0  0  0
 12 13  2  0  0  0  0
  7  8  1  0  0  0  0
 14 15  1  0  0  0  0
 14 16  2  0  0  0  0
 15 17  2  0  0  0  0
 16 18  1  0  0  0  0
 17 19  1  0  0  0  0
 18 19  2  0  0  0  0
  7 14  1  0  0  0  0
  3  7  1  0  0  0  0
 20 21  1  0  0  0  0
 20 22  2  0  0  0  0
 21 23  2  0  0  0  0
 22 24  1  0  0  0  0
 23 25  1  0  0  0  0
 24 25  2  0  0  0  0
 26 27  1  0  0  0  0
 26 28  1  0  0  0  0
 26 29  1  0  0  0  0
 26 30  1  0  0  0  0
 29 31  1  0  0  0  0
 29 32  1  0  0  0  0
 29 33  1  0  0  0  0
 30 34  1  0  0  0  0
 30 35  1  0  0  0  0
 30 36  1  0  0  0  0
 32 37  1  0  0  0  0
 37 38  1  0  0  0  0
 38 39  1  0  0  0  0
 31 40  1  0  0  0  0
 40 41  1  0  0  0  0
 41 42  1  0  0  0  0
 36 43  1  0  0  0  0
 43 44  1  0  0  0  0
 44 45  1  0  0  0  0
 33 46  1  0  0  0  0
 46 47  1  0  0  0  0
 47 48  1  0  0  0  0
 34 49  1  0  0  0  0
 49 50  1  0  0  0  0
 50 51  1  0  0  0  0
 35 52  1  0  0  0  0
 52 53  1  0  0  0  0
 53 54  1  0  0  0  0
 26 55  1  0  0  0  0
 26 56  1  0  0  0  0
 57 58  1  0  0  0  0
 57 59  2  0  0  0  0
 58 60  2  0  0  0  0
 59 61  1  0  0  0  0
 60 62  1  0  0  0  0
 61 62  2  0  0  0  0
 56 57  1  0  0  0  0
 63 64  1  0  0  0  0
 63 65  2  0  0  0  0
 64 66  2  0  0  0  0
 65 67  1  0  0  0  0
 66 68  1  0  0  0  0
 67 68  2  0  0  0  0
 56 63  1  0  0  0  0
 22 56  1  0  0  0  0
  7 26  1  0  0  0  0
M  END
> <NMREDATA_VERSION>
1.1

> <NMREDATA_LEVEL>
0

> <NMREDATA_SOLVENT>
CD2Cl2

> <NMREDATA_TEMPERATURE>
248

> <NMREDATA_FORMULA>
C60H89P2RhSn2

> <NMREDATA_SMILES>
CCCC[Sn]([RhH3](P(c1ccccc1)(c1ccccc1)c1ccccc1)(P(c1ccccc1)(c1ccccc1)c1ccccc1)[Sn](CCCC)(CCCC)CCCC)(CCCC)CCCC

> <NMREDATA_ASSIGNMENT>
Rh26, -1440.00, 26

> <NMREDATA_1D_103Rh>
-1440.00, L=Rh26

$$$$

  ACD/LABS04252417172D

 23 23  0  0  0  0  0  0  0  0  3 V2000
   12.4668   -8.4447    0.0000 Rh   0  0  0  0  0  4  0  0  0  0  0  0
   15.2549   -7.0506    0.0000 Fe   0  0  0  0  0  0  0  0  0  0  0  0
   15.2710   -9.6946    0.0000 Fe   0  0  0  0  0  0  0  0  0  0  0  0
   11.1368   -7.4031    0.0000 C    0  0  0  0  0  0  0  0  0  0  0  0
   10.9284   -9.5664    0.0000 C    0  0  0  0  0  0  0  0  0  0  0  0
   15.3351   -4.7592    0.0000 C    0  0  0  0  0  0  0  0  0  0  0  0
   16.9855   -5.5283    0.0000 C    0  0  0  0  0  0  0  0  0  0  0  0
   17.9951   -6.4096    0.0000 C    0  0  0  0  0  0  0  0  0  0  0  0
   18.8604   -7.2910    0.0000 C    0  0  0  0  0  0  0  0  0  0  0  0
   18.1553   -9.5664    0.0000 C    0  0  0  0  0  0  0  0  0  0  0  0
   18.5399  -10.6560    0.0000 C    0  0  0  0  0  0  0  0  0  0  0  0
   17.3060  -11.4893    0.0000 C    0  0  0  0  0  0  0  0  0  0  0  0
   15.4152  -11.9380    0.0000 C    0  0  0  0  0  0  0  0  0  0  0  0
   16.1843   -3.3651    0.0000 O    0  3  0  0  0  0  0  0  0  0  0  0
   18.3476   -4.4547    0.0000 O    0  3  0  0  0  0  0  0  0  0  0  0
   19.7898   -5.4802    0.0000 O    0  3  0  0  0  0  0  0  0  0  0  0
   21.0396   -7.0987    0.0000 O    0  3  0  0  0  0  0  0  0  0  0  0
   20.3987   -9.1337    0.0000 O    0  3  0  0  0  0  0  0  0  0  0  0
   21.3922   -9.9670    0.0000 O    0  3  0  0  0  0  0  0  0  0  0  0
   18.8604  -11.4252    0.0000 O    0  3  0  0  0  0  0  0  0  0  0  0
   16.8253  -12.5469    0.0000 O    0  3  0  0  0  0  0  0  0  0  0  0
   10.4637  -10.4637    0.0000 O    0  3  0  0  0  0  0  0  0  0  0  0
    9.6946   -7.0506    0.0000 O    0  3  0  0  0  0  0  0  0  0  0  0
  1  2  1  0  0  0  0
  1  3  1  0  0  0  0
  2  3  1  0  0  0  0
  1  4  1  0  0  0  0
  1  5  1  0  0  0  0
  2  6  1  0  0  0  0
  2  7  1  0  0  0  0
  2  8  1  0  0  0  0
  2  9  1  0  0  0  0
  3 10  1  0  0  0  0
  3 11  1  0  0  0  0
  3 12  1  0  0  0  0
  3 13  1  0  0  0  0
  6 14  3  0  0  0  0
  7 15  3  0  0  0  0
  8 16  3  0  0  0  0
  9 17  3  0  0  0  0
 10 18  3  0  0  0  0
 11 19  3  0  0  0  0
 12 20  3  0  0  0  0
 13 21  3  0  0  0  0
  5 22  3  0  0  0  0
  4 23  3  0  0  0  0
M  END
> <NMREDATA_VERSION>
1.1

> <NMREDATA_LEVEL>
0

> <NMREDATA_TEMPERATURE>
188

> <NMREDATA_FORMULA>
C10Fe2O10Rh

> <NMREDATA_SMILES>
[O]#C[Rh]1(C#[O])[Fe]([Fe]1(C#[O])(C#[O])(C#[O])C#[O])(C#[O])(C#[O])(C#[O])C#[O]

> <NMREDATA_ASSIGNMENT>
Rh1, 0.00, 1

> <NMREDATA_1D_103Rh>
0.00, L=Rh1

$$$$

  ACD/LABS04262416562D

 96113  0  0  0  0  0  0  0  0  2 V2000
   26.3578  -16.6250    0.0000 C    0  0  0  0  0  0  0  0  0  0  0  0
   26.3578  -17.9550    0.0000 C    0  0  0  0  0  0  0  0  0  0  0  0
   25.2058  -15.9600    0.0000 C    0  0  0  0  0  0  0  0  0  0  0  0
   25.2058  -18.6200    0.0000 C    0  0  0  0  0  0  0  0  0  0  0  0
   24.0541  -16.6250    0.0000 C    0  0  0  0  0  0  0  0  0  0  0  0
   24.0541  -17.9550    0.0000 C    0  0  0  0  0  0  0  0  0  0  0  0
   18.1534  -18.5319    0.0000 C    0  0  0  0  0  0  0  0  0  0  0  0
   18.1534  -19.8619    0.0000 C    0  0  0  0  0  0  0  0  0  0  0  0
   17.0015  -17.8669    0.0000 C    0  0  0  0  0  0  0  0  0  0  0  0
   17.0015  -20.5269    0.0000 C    0  0  0  0  0  0  0  0  0  0  0  0
   15.8497  -18.5319    0.0000 C    0  0  0  0  0  0  0  0  0  0  0  0
   15.8497  -19.8619    0.0000 C    0  0  0  0  0  0  0  0  0  0  0  0
   11.9040  -13.5003    0.0000 C    0  0  0  0  0  0  0  0  0  0  0  0
   11.9040  -14.8303    0.0000 C    0  0  0  0  0  0  0  0  0  0  0  0
   10.7521  -12.8353    0.0000 C    0  0  0  0  0  0  0  0  0  0  0  0
   10.7521  -15.4953    0.0000 C    0  0  0  0  0  0  0  0  0  0  0  0
    9.6003  -13.5003    0.0000 C    0  0  0  0  0  0  0  0  0  0  0  0
    9.6003  -14.8303    0.0000 C    0  0  0  0  0  0  0  0  0  0  0  0
   18.5559   -9.1017    0.0000 Rh   0  6  0  0  0  0  0  0  0  0  0  0
   16.3125   -9.9349    0.0000 H    0  0  0  0  0  0  0  0  0  0  0  0
   20.3827  -10.4157    0.0000 H    0  0  0  0  0  0  0  0  0  0  0  0
   16.1843  -11.4572    0.0000 Au   0  6  0  0  0  0  0  0  0  0  0  0
   20.1904  -11.6655    0.0000 Au   0  6  0  0  0  0  0  0  0  0  0  0
   18.0752  -13.2519    0.0000 Au   0  5  0  0  0  0  0  0  0  0  0  0
   17.4182   -7.7717    0.0000 P    0  0  0  0  0  0  0  0  0  0  0  0
   18.9084   -7.4993    0.0000 P    0  0  0  0  0  0  0  0  0  0  0  0
   20.7512   -8.3325    0.0000 P    0  0  0  0  0  0  0  0  0  0  0  0
   17.0977   -6.1212    0.0000 C    0  0  0  0  0  0  0  0  0  0  0  0
   19.0366   -5.3200    0.0000 C    0  0  0  0  0  0  0  0  0  0  0  0
   18.7963   -6.2494    0.0000 C    0  0  0  0  0  0  0  0  0  0  0  0
   20.7993   -6.4898    0.0000 C    0  0  0  0  0  0  0  0  0  0  0  0
   19.0687   -4.0541    0.0000 C    0  0  0  0  0  0  0  0  0  0  0  0
   22.1655   -9.3636    0.0000 C    0  0  0  0  0  0  0  0  0  0  0  0
   23.7656   -8.6543    0.0000 C    0  0  0  0  0  0  0  0  0  0  0  0
   21.9798  -11.1040    0.0000 C    0  0  0  0  0  0  0  0  0  0  0  0
   25.1799   -9.6855    0.0000 C    0  0  0  0  0  0  0  0  0  0  0  0
   23.3940  -12.1351    0.0000 C    0  0  0  0  0  0  0  0  0  0  0  0
   24.9941  -11.4258    0.0000 C    0  0  0  0  0  0  0  0  0  0  0  0
   20.6551   -7.6104    0.0000 C    0  0  0  0  0  0  0  0  0  0  0  0
   21.6247   -6.1533    0.0000 C    0  0  0  0  0  0  0  0  0  0  0  0
   21.4323   -9.1787    0.0000 C    0  0  0  0  0  0  0  0  0  0  0  0
   23.3715   -6.2645    0.0000 C    0  0  0  0  0  0  0  0  0  0  0  0
   23.1790   -9.2898    0.0000 C    0  0  0  0  0  0  0  0  0  0  0  0
   24.1486   -7.8327    0.0000 C    0  0  0  0  0  0  0  0  0  0  0  0
   15.8420   -8.5325    0.0000 C    0  0  0  0  0  0  0  0  0  0  0  0
   15.7128  -10.2780    0.0000 C    0  0  0  0  0  0  0  0  0  0  0  0
   14.3949   -7.5479    0.0000 C    0  0  0  0  0  0  0  0  0  0  0  0
   14.1364  -11.0388    0.0000 C    0  0  0  0  0  0  0  0  0  0  0  0
   12.8187   -8.3087    0.0000 C    0  0  0  0  0  0  0  0  0  0  0  0
   12.6895  -10.0541    0.0000 C    0  0  0  0  0  0  0  0  0  0  0  0
   14.1813  -12.5308    0.0000 P    0  0  0  0  0  0  0  0  0  0  0  0
   17.6746  -15.1748    0.0000 P    0  0  0  0  0  0  0  0  0  0  0  0
   21.9049  -13.7807    0.0000 P    0  0  0  0  0  0  0  0  0  0  0  0
   21.2785  -15.4150    0.0000 C    0  0  0  0  0  0  0  0  0  0  0  0
   22.3806  -16.7747    0.0000 C    0  0  0  0  0  0  0  0  0  0  0  0
   19.5499  -15.6897    0.0000 C    0  0  0  0  0  0  0  0  0  0  0  0
   21.7541  -18.4090    0.0000 C    0  0  0  0  0  0  0  0  0  0  0  0
   18.9235  -17.3240    0.0000 C    0  0  0  0  0  0  0  0  0  0  0  0
   20.0256  -18.6836    0.0000 C    0  0  0  0  0  0  0  0  0  0  0  0
   23.6335  -13.5061    0.0000 C    0  0  0  0  0  0  0  0  0  0  0  0
   24.2599  -11.8718    0.0000 C    0  0  0  0  0  0  0  0  0  0  0  0
   24.7357  -14.8658    0.0000 C    0  0  0  0  0  0  0  0  0  0  0  0
   25.9886  -11.5972    0.0000 C    0  0  0  0  0  0  0  0  0  0  0  0
   26.4642  -14.5911    0.0000 C    0  0  0  0  0  0  0  0  0  0  0  0
   27.0906  -12.9568    0.0000 C    0  0  0  0  0  0  0  0  0  0  0  0
   16.0122  -15.7224    0.0000 C    0  0  0  0  0  0  0  0  0  0  0  0
   15.6552  -17.4358    0.0000 C    0  0  0  0  0  0  0  0  0  0  0  0
   14.7067  -14.5565    0.0000 C    0  0  0  0  0  0  0  0  0  0  0  0
   13.9927  -17.9834    0.0000 C    0  0  0  0  0  0  0  0  0  0  0  0
   13.0444  -15.1041    0.0000 C    0  0  0  0  0  0  0  0  0  0  0  0
   12.6874  -16.8175    0.0000 C    0  0  0  0  0  0  0  0  0  0  0  0
   18.9800  -16.3407    0.0000 C    0  0  0  0  0  0  0  0  0  0  0  0
   20.6424  -15.7931    0.0000 C    0  0  0  0  0  0  0  0  0  0  0  0
   18.6230  -18.0542    0.0000 C    0  0  0  0  0  0  0  0  0  0  0  0
   21.9478  -16.9591    0.0000 C    0  0  0  0  0  0  0  0  0  0  0  0
   19.9284  -19.2201    0.0000 C    0  0  0  0  0  0  0  0  0  0  0  0
   21.5908  -18.6725    0.0000 C    0  0  0  0  0  0  0  0  0  0  0  0
   12.6940  -11.6083    0.0000 C    0  0  0  0  0  0  0  0  0  0  0  0
   11.1513  -12.4352    0.0000 C    0  0  0  0  0  0  0  0  0  0  0  0
   12.7492   -9.8589    0.0000 C    0  0  0  0  0  0  0  0  0  0  0  0
    9.6639  -11.5125    0.0000 C    0  0  0  0  0  0  0  0  0  0  0  0
   11.2618   -8.9364    0.0000 C    0  0  0  0  0  0  0  0  0  0  0  0
    9.7192   -9.7632    0.0000 C    0  0  0  0  0  0  0  0  0  0  0  0
   14.1261  -14.2802    0.0000 C    0  0  0  0  0  0  0  0  0  0  0  0
   15.6134  -15.2027    0.0000 C    0  0  0  0  0  0  0  0  0  0  0  0
   12.5834  -15.1071    0.0000 C    0  0  0  0  0  0  0  0  0  0  0  0
   15.5581  -16.9522    0.0000 C    0  0  0  0  0  0  0  0  0  0  0  0
   12.5282  -16.8564    0.0000 C    0  0  0  0  0  0  0  0  0  0  0  0
   14.0155  -17.7790    0.0000 C    0  0  0  0  0  0  0  0  0  0  0  0
   32.4168   -8.7331    0.0000 P    0  5  0  0  0  0  0  0  0  0  0  0
   32.8013   -7.4192    0.0000 F    0  0  0  0  0  0  0  0  0  0  0  0
   33.8429   -8.4127    0.0000 F    0  0  0  0  0  0  0  0  0  0  0  0
   31.3752   -8.0441    0.0000 F    0  0  0  0  0  0  0  0  0  0  0  0
   30.6381   -9.0536    0.0000 F    0  0  0  0  0  0  0  0  0  0  0  0
   31.6156   -9.6946    0.0000 F    0  0  0  0  0  0  0  0  0  0  0  0
   33.2981   -9.8869    0.0000 F    0  0  0  0  0  0  0  0  0  0  0  0
  1  2  1  0  0  0  0
  1  3  2  0  0  0  0
  2  4  2  0  0  0  0
  3  5  1  0  0  0  0
  4  6  1  0  0  0  0
  5  6  2  0  0  0  0
  7  8  1  0  0  0  0
  7  9  2  0  0  0  0
  8 10  2  0  0  0  0
  9 11  1  0  0  0  0
 10 12  1  0  0  0  0
 11 12  2  0  0  0  0
 13 14  1  0  0  0  0
 13 15  2  0  0  0  0
 14 16  2  0  0  0  0
 15 17  1  0  0  0  0
 16 18  1  0  0  0  0
 17 18  2  0  0  0  0
 19 20  1  0  0  0  0
 19 21  1  0  0  0  0
 19 22  1  0  0  0  0
 19 23  1  0  0  0  0
 19 24  1  0  0  0  0
 22 24  1  0  0  0  0
 23 24  1  0  0  0  0
 20 22  1  0  0  0  0
 21 23  1  0  0  0  0
 22 23  1  0  0  0  0
 19 25  1  0  0  0  0
 19 26  1  0  0  0  0
 19 27  1  0  0  0  0
 25 28  1  0  0  0  0
 28 29  1  0  0  0  0
 26 30  1  0  0  0  0
 30 29  1  0  0  0  0
 27 31  1  0  0  0  0
 31 29  1  0  0  0  0
 29 32  1  0  0  0  0
 33 34  1  0  0  0  0
 33 35  2  0  0  0  0
 34 36  2  0  0  0  0
 35 37  1  0  0  0  0
 36 38  1  0  0  0  0
 37 38  2  0  0  0  0
 27 33  1  0  0  0  0
 39 40  1  0  0  0  0
 39 41  2  0  0  0  0
 40 42  2  0  0  0  0
 41 43  1  0  0  0  0
 42 44  1  0  0  0  0
 43 44  2  0  0  0  0
 26 39  1  0  0  0  0
 45 46  1  0  0  0  0
 45 47  2  0  0  0  0
 46 48  2  0  0  0  0
 47 49  1  0  0  0  0
 48 50  1  0  0  0  0
 49 50  2  0  0  0  0
 25 45  1  0  0  0  0
 22 51  1  0  0  0  0
 24 52  1  0  0  0  0
 23 53  1  0  0  0  0
 54 55  1  0  0  0  0
 54 56  2  0  0  0  0
 55 57  2  0  0  0  0
 56 58  1  0  0  0  0
 57 59  1  0  0  0  0
 58 59  2  0  0  0  0
 53 54  1  0  0  0  0
 60 61  1  0  0  0  0
 60 62  2  0  0  0  0
 61 63  2  0  0  0  0
 62 64  1  0  0  0  0
 63 65  1  0  0  0  0
 64 65  2  0  0  0  0
 53 60  1  0  0  0  0
 66 67  1  0  0  0  0
 66 68  2  0  0  0  0
 67 69  2  0  0  0  0
 68 70  1  0  0  0  0
 69 71  1  0  0  0  0
 70 71  2  0  0  0  0
 52 66  1  0  0  0  0
 72 73  1  0  0  0  0
 72 74  2  0  0  0  0
 73 75  2  0  0  0  0
 74 76  1  0  0  0  0
 75 77  1  0  0  0  0
 76 77  2  0  0  0  0
 52 72  1  0  0  0  0
 78 79  1  0  0  0  0
 78 80  2  0  0  0  0
 79 81  2  0  0  0  0
 80 82  1  0  0  0  0
 81 83  1  0  0  0  0
 82 83  2  0  0  0  0
 51 78  1  0  0  0  0
 84 85  1  0  0  0  0
 84 86  2  0  0  0  0
 85 87  2  0  0  0  0
 86 88  1  0  0  0  0
 87 89  1  0  0  0  0
 88 89  2  0  0  0  0
 51 84  1  0  0  0  0
 13 51  1  0  0  0  0
  9 52  1  0  0  0  0
  5 53  1  0  0  0  0
 90 91  1  0  0  0  0
 90 92  1  0  0  0  0
 90 93  1  0  0  0  0
 90 94  1  0  0  0  0
 90 95  1  0  0  0  0
 90 96  1  0  0  0  0
M  END
> <NMREDATA_VERSION>
1.1

> <NMREDATA_LEVEL>
0

> <NMREDATA_SOLVENT>
CD2Cl2

> <NMREDATA_TEMPERATURE>
310

> <NMREDATA_FORMULA>
C77H76Au3F6P7Rh

> <NMREDATA_SMILES>
F[P](F)(F)(F)(F)F.CC12CP(c3ccccc3)[Rh]3456(P(C1)c1ccccc1)(P(C2)c1ccccc1)[H][Au]16([Au]4([Au]51([H]3)P(c1ccccc1)(c1ccccc1)c1ccccc1)P(c1ccccc1)(c1ccccc1)c1ccccc1)P(c1ccccc1)(c1ccccc1)c1ccccc1

> <NMREDATA_ASSIGNMENT>
Rh19, -1090.00, 19

> <NMREDATA_1D_103Rh>
-1090.00, L=Rh19

$$$$
