
  ACD/LABS02072411432D

 62 66  0  0  0  0  0  0  0  0  1 V2000
   19.3016  -23.3817    0.0000 Si   0  0  0  0  0  0  0  0  0  0  0  0
   17.3301  -23.0300    0.0000 C    0  0  0  0  0  0  0  0  0  0  0  0
   21.2784  -23.7512    0.0000 C    0  0  0  0  0  0  0  0  0  0  0  0
   18.6140  -25.2673    0.0000 N    0  0  0  0  0  0  0  0  0  0  0  0
   21.4786  -19.6110    0.0000 O    0  0  0  0  0  0  0  0  0  0  0  0
   13.8209  -25.3686    0.0000 O    0  0  0  0  0  0  0  0  0  0  0  0
   15.0996  -26.8934    0.0000 C    0  0  0  0  0  0  0  0  0  0  0  0
   17.0825  -26.5577    0.0000 C    0  0  0  0  0  0  0  0  0  0  0  0
   18.9570  -27.2389    0.0000 C    0  0  0  0  0  0  0  0  0  0  0  0
   20.2284  -28.7750    0.0000 C    0  0  0  0  0  0  0  0  0  0  0  0
   19.5407  -30.6606    0.0000 O    0  0  0  0  0  0  0  0  0  0  0  0
   22.1996  -28.4326    0.0000 O    0  0  0  0  0  0  0  0  0  0  0  0
   14.4116  -28.7796    0.0000 O    0  0  0  0  0  0  0  0  0  0  0  0
   23.7960  -15.9983    0.0000 Si   0  0  0  0  0  0  0  0  0  0  0  0
   21.9177  -16.6874    0.0000 C    0  0  0  0  0  0  0  0  0  0  0  0
   25.6864  -15.3154    0.0000 C    0  0  0  0  0  0  0  0  0  0  0  0
   23.4539  -14.0265    0.0000 N    0  0  0  0  0  0  0  0  0  0  0  0
   24.4741  -21.3404    0.0000 Rh   0  0  0  0  0  0  0  0  0  0  0  0
   23.4832  -19.6119    0.0000 La   0  0  0  0  0  0  0  0  0  0  0  0
   24.4851  -17.8767    0.0000 O    0  0  0  0  0  0  0  0  0  0  0  0
   27.5359  -11.5250    0.0000 O    0  0  0  0  0  0  0  0  0  0  0  0
   25.6547  -10.8554    0.0000 C    0  0  0  0  0  0  0  0  0  0  0  0
   24.1232  -12.1458    0.0000 C    0  0  0  0  0  0  0  0  0  0  0  0
   22.1452  -12.4999    0.0000 C    0  0  0  0  0  0  0  0  0  0  0  0
   20.2712  -11.8190    0.0000 C    0  0  0  0  0  0  0  0  0  0  0  0
   18.7391  -13.1090    0.0000 O    0  0  0  0  0  0  0  0  0  0  0  0
   19.9098   -9.8523    0.0000 O    0  0  0  0  0  0  0  0  0  0  0  0
   25.3009   -8.8768    0.0000 O    0  0  0  0  0  0  0  0  0  0  0  0
   29.3860  -19.6725    0.0000 C    0  0  0  0  0  0  0  0  0  0  0  0
   28.0342  -21.1591    0.0000 O    0  0  0  0  0  0  0  0  0  0  0  0
   28.3828  -17.9369    0.0000 C    0  0  0  0  0  0  0  0  0  0  0  0
   26.2103  -20.3377    0.0000 C    0  0  0  0  0  0  0  0  0  0  0  0
   26.4194  -18.3453    0.0000 C    0  0  0  0  0  0  0  0  0  0  0  0
   25.4839  -23.0644    0.0000 C    0  0  0  0  0  0  0  0  0  0  0  0
   27.4818  -23.0770    0.0000 C    0  0  0  0  0  0  0  0  0  0  0  0
   19.4678  -20.8243    0.0000 Si   0  0  0  0  0  0  0  0  0  0  0  0
   20.4589  -22.5538    0.0000 C    0  0  0  0  0  0  0  0  0  0  0  0
   17.7316  -21.8271    0.0000 C    0  0  0  0  0  0  0  0  0  0  0  0
   17.9356  -19.5232    0.0000 N    0  0  0  0  0  0  0  0  0  0  0  0
   21.4675  -20.8069    0.0000 O    0  0  0  0  0  0  0  0  0  0  0  0
   12.7022  -17.9830    0.0000 O    0  0  0  0  0  0  0  0  0  0  0  0
   13.9925  -19.5145    0.0000 C    0  0  0  0  0  0  0  0  0  0  0  0
   15.9638  -19.1720    0.0000 C    0  0  0  0  0  0  0  0  0  0  0  0
   17.2466  -17.6448    0.0000 C    0  0  0  0  0  0  0  0  0  0  0  0
   17.6096  -15.6806    0.0000 C    0  0  0  0  0  0  0  0  0  0  0  0
   19.4812  -15.0032    0.0000 O    0  0  0  0  0  0  0  0  0  0  0  0
   16.0713  -14.3915    0.0000 O    0  0  0  0  0  0  0  0  0  0  0  0
   13.2932  -21.3933    0.0000 O    0  0  0  0  0  0  0  0  0  0  0  0
   24.4799  -25.3378    0.0000 Si   0  0  0  0  0  0  0  0  0  0  0  0
   26.2161  -24.3350    0.0000 C    0  0  0  0  0  0  0  0  0  0  0  0
   23.4780  -27.0730    0.0000 C    0  0  0  0  0  0  0  0  0  0  0  0
   26.2152  -26.3396    0.0000 N    0  0  0  0  0  0  0  0  0  0  0  0
   22.7456  -22.3313    0.0000 La   0  0  0  0  0  0  0  0  0  0  0  0
   22.7446  -24.3359    0.0000 O    0  0  0  0  0  0  0  0  0  0  0  0
   29.9492  -23.3451    0.0000 O    0  0  0  0  0  0  0  0  0  0  0  0
   29.9560  -25.3378    0.0000 C    0  0  0  0  0  0  0  0  0  0  0  0
   28.2198  -26.3405    0.0000 C    0  0  0  0  0  0  0  0  0  0  0  0
   27.2179  -28.0758    0.0000 C    0  0  0  0  0  0  0  0  0  0  0  0
   27.2180  -30.0802    0.0000 C    0  0  0  0  0  0  0  0  0  0  0  0
   25.4818  -31.0829    0.0000 O    0  0  0  0  0  0  0  0  0  0  0  0
   28.9526  -31.0817    0.0000 O    0  0  0  0  0  0  0  0  0  0  0  0
   31.6907  -26.3393    0.0000 O    0  0  0  0  0  0  0  0  0  0  0  0
  1  2  1  0  0  0  0
  1  3  1  0  0  0  0
  1  4  1  0  0  0  0
  1  5  1  0  0  0  0
  6  7  1  0  0  0  0
  7  8  1  0  0  0  0
  8  9  2  0  0  0  0
  9 10  1  0  0  0  0
 10 11  1  0  0  0  0
 10 12  2  0  0  0  0
  7 13  2  0  0  0  0
  4  8  1  0  0  0  0
  4  9  1  0  0  0  0
 14 15  1  0  0  0  0
 14 16  1  0  0  0  0
 14 17  1  0  0  0  0
 18 19  1  0  0  0  0
 19 20  1  0  0  0  0
 14 20  1  0  0  0  0
 21 22  1  0  0  0  0
 22 23  1  0  0  0  0
 23 24  2  0  0  0  0
 24 25  1  0  0  0  0
 25 26  1  0  0  0  0
 25 27  2  0  0  0  0
 22 28  2  0  0  0  0
 17 23  1  0  0  0  0
 17 24  1  0  0  0  0
  5 19  1  0  0  0  0
 29 30  1  0  0  0  0
 29 31  1  0  0  0  0
 30 32  1  0  0  0  0
 31 33  1  0  0  0  0
 32 33  1  0  0  0  0
 18 32  1  0  0  0  0
 18 34  2  0  0  0  0
 34 35  1  0  0  0  0
 36 37  1  0  0  0  0
 36 38  1  0  0  0  0
 36 39  1  0  0  0  0
 36 40  1  0  0  0  0
 41 42  1  0  0  0  0
 42 43  1  0  0  0  0
 43 44  2  0  0  0  0
 44 45  1  0  0  0  0
 45 46  1  0  0  0  0
 45 47  2  0  0  0  0
 42 48  2  0  0  0  0
 39 43  1  0  0  0  0
 39 44  1  0  0  0  0
 49 50  1  0  0  0  0
 49 51  1  0  0  0  0
 49 52  1  0  0  0  0
 53 54  1  0  0  0  0
 49 54  1  0  0  0  0
 55 56  1  0  0  0  0
 56 57  1  0  0  0  0
 57 58  2  0  0  0  0
 58 59  1  0  0  0  0
 59 60  1  0  0  0  0
 59 61  2  0  0  0  0
 56 62  2  0  0  0  0
 52 57  1  0  0  0  0
 52 58  1  0  0  0  0
 40 53  1  0  0  0  0
 18 53  1  0  0  0  0
M  END
> <NMREDATA_VERSION>
1.1

> <NMREDATA_LEVEL>
0

> <NMREDATA_SOLVENT>
C6D6

> <NMREDATA_TEMPERATURE>
297

> <NMREDATA_FORMULA>
C30H43La2N4O21RhSi4

> <NMREDATA_SMILES>
CC=[Rh]([La](O[Si](N1C(=C1C(=O)O)C(=O)O)(C)C)O[Si](N1C(=C1C(=O)O)C(=O)O)(C)C)([La](O[Si](N1C(=C1C(=O)O)C(=O)O)(C)C)O[Si](N1C(=C1C(=O)O)C(=O)O)(C)C)C1CCCO1

> <NMREDATA_ASSIGNMENT>
Rh18, 2242.00, 18

> <NMREDATA_1D_103Rh>
2242.00, L=Rh18

$$$$
