
  ACD/LABS03292412462D

 55 62  0  0  0  0  0  0  0  0  1 V2000
   24.3202   -9.8399    0.0000 C    0  0  0  0  0  0  0  0  0  0  0  0
   24.9852  -10.9917    0.0000 C    0  0  0  0  0  0  0  0  0  0  0  0
   22.9902   -9.8399    0.0000 C    0  0  0  0  0  0  0  0  0  0  0  0
   24.3202  -12.1435    0.0000 C    0  0  0  0  0  0  0  0  0  0  0  0
   22.3252  -10.9917    0.0000 C    0  0  0  0  0  0  0  0  0  0  0  0
   22.9902  -12.1435    0.0000 C    0  0  0  0  0  0  0  0  0  0  0  0
   18.3352  -10.9917    0.0000 C    0  0  0  0  0  0  0  0  0  0  0  0
   19.0002   -9.8399    0.0000 C    0  0  0  0  0  0  0  0  0  0  0  0
   19.0002  -12.1435    0.0000 C    0  0  0  0  0  0  0  0  0  0  0  0
   20.3302   -9.8399    0.0000 C    0  0  0  0  0  0  0  0  0  0  0  0
   20.3302  -12.1435    0.0000 C    0  0  0  0  0  0  0  0  0  0  0  0
   20.9952  -10.9917    0.0000 C    0  0  0  0  0  0  0  0  0  0  0  0
   19.8434  -15.2903    0.0000 C    0  0  0  0  0  0  0  0  0  0  0  0
   18.6916  -15.9553    0.0000 C    0  0  0  0  0  0  0  0  0  0  0  0
   19.8434  -13.9603    0.0000 C    0  0  0  0  0  0  0  0  0  0  0  0
   17.5398  -15.2903    0.0000 C    0  0  0  0  0  0  0  0  0  0  0  0
   18.6916  -13.2953    0.0000 C    0  0  0  0  0  0  0  0  0  0  0  0
   17.5398  -13.9603    0.0000 C    0  0  0  0  0  0  0  0  0  0  0  0
   22.1471  -11.3003    0.0000 C    0  0  0  0  0  0  0  0  0  0  0  0
   23.2989  -10.6353    0.0000 C    0  0  0  0  0  0  0  0  0  0  0  0
   22.1471  -12.6303    0.0000 C    0  0  0  0  0  0  0  0  0  0  0  0
   24.4507  -11.3003    0.0000 C    0  0  0  0  0  0  0  0  0  0  0  0
   23.2989  -13.2953    0.0000 C    0  0  0  0  0  0  0  0  0  0  0  0
   24.4507  -12.6303    0.0000 C    0  0  0  0  0  0  0  0  0  0  0  0
   21.6602  -14.4471    0.0000 Rh   0  0  0  0  0  0  0  0  0  0  0  0
   20.3302  -14.4471    0.0000 H    0  0  0  0  0  0  0  0  0  0  0  0
   22.9902  -14.4471    0.0000 H    0  0  0  0  0  0  0  0  0  0  0  0
   20.9952  -13.2953    0.0000 P    0  0  0  0  0  0  0  0  0  0  0  0
   22.3252  -15.5989    0.0000 C    0  0  0  0  0  0  0  0  0  0  0  0
   23.6552  -15.5989    0.0000 C    0  0  0  0  0  0  0  0  0  0  0  0
   21.6602  -16.7507    0.0000 C    0  0  0  0  0  0  0  0  0  0  0  0
   24.3202  -16.7507    0.0000 C    0  0  0  0  0  0  0  0  0  0  0  0
   22.3252  -17.9025    0.0000 C    0  0  0  0  0  0  0  0  0  0  0  0
   23.6552  -17.9025    0.0000 N    0  0  0  0  0  0  0  0  0  0  0  0
   22.3252  -13.2953    0.0000 P    0  0  0  0  0  0  0  0  0  0  0  0
   21.1734  -12.6303    0.0000 C    0  0  0  0  0  0  0  0  0  0  0  0
   20.0216  -13.2953    0.0000 C    0  0  0  0  0  0  0  0  0  0  0  0
   21.1734  -11.3003    0.0000 C    0  0  0  0  0  0  0  0  0  0  0  0
   18.8698  -12.6303    0.0000 C    0  0  0  0  0  0  0  0  0  0  0  0
   20.0216  -10.6353    0.0000 C    0  0  0  0  0  0  0  0  0  0  0  0
   18.8698  -11.3003    0.0000 C    0  0  0  0  0  0  0  0  0  0  0  0
   23.4771  -13.9603    0.0000 C    0  0  0  0  0  0  0  0  0  0  0  0
   24.6289  -13.2953    0.0000 C    0  0  0  0  0  0  0  0  0  0  0  0
   23.4771  -15.2903    0.0000 C    0  0  0  0  0  0  0  0  0  0  0  0
   25.7807  -13.9603    0.0000 C    0  0  0  0  0  0  0  0  0  0  0  0
   24.6289  -15.9553    0.0000 C    0  0  0  0  0  0  0  0  0  0  0  0
   25.7807  -15.2903    0.0000 C    0  0  0  0  0  0  0  0  0  0  0  0
   20.9952  -15.5989    0.0000 S    0  0  0  0  0  0  0  0  0  0  0  0
   19.6652  -15.5989    0.0000 C    0  0  0  0  0  0  0  0  0  0  0  0
   19.0002  -16.7507    0.0000 C    0  0  0  0  0  0  0  0  0  0  0  0
   19.6652  -17.9025    0.0000 C    0  0  0  0  0  0  0  0  0  0  0  0
   17.6702  -16.7507    0.0000 C    0  0  0  0  0  0  0  0  0  0  0  0
   19.0002  -19.0544    0.0000 C    0  0  0  0  0  0  0  0  0  0  0  0
   17.0052  -17.9025    0.0000 C    0  0  0  0  0  0  0  0  0  0  0  0
   17.6702  -19.0544    0.0000 C    0  0  0  0  0  0  0  0  0  0  0  0
  1  2  1  0  0  0  0
  1  3  2  0  0  0  0
  2  4  2  0  0  0  0
  3  5  1  0  0  0  0
  4  6  1  0  0  0  0
  5  6  2  0  0  0  0
  7  8  2  0  0  0  0
  7  9  1  0  0  0  0
  8 10  1  0  0  0  0
  9 11  2  0  0  0  0
 10 12  2  0  0  0  0
 11 12  1  0  0  0  0
 13 14  2  0  0  0  0
 13 15  1  0  0  0  0
 14 16  1  0  0  0  0
 15 17  2  0  0  0  0
 16 18  2  0  0  0  0
 17 18  1  0  0  0  0
 19 20  2  0  0  0  0
 19 21  1  0  0  0  0
 20 22  1  0  0  0  0
 21 23  2  0  0  0  0
 22 24  2  0  0  0  0
 23 24  1  0  0  0  0
 25 26  1  0  0  0  0
 25 27  1  0  0  0  0
 25 28  1  0  0  0  0
 21 28  1  0  0  0  0
 15 28  1  0  0  0  0
 11 28  1  0  0  0  0
 29 30  1  0  0  0  0
 29 31  2  0  0  0  0
 30 32  2  0  0  0  0
 31 33  1  0  0  0  0
 32 34  1  0  0  0  0
 33 34  2  0  0  0  0
 25 29  1  0  0  0  0
 25 35  1  0  0  0  0
 36 37  1  0  0  0  0
 36 38  2  0  0  0  0
 37 39  2  0  0  0  0
 38 40  1  0  0  0  0
 39 41  1  0  0  0  0
 40 41  2  0  0  0  0
 35 36  1  0  0  0  0
 42 43  1  0  0  0  0
 42 44  2  0  0  0  0
 43 45  2  0  0  0  0
 44 46  1  0  0  0  0
 45 47  1  0  0  0  0
 46 47  2  0  0  0  0
 35 42  1  0  0  0  0
  6 35  1  0  0  0  0
 25 48  1  0  0  0  0
 48 49  1  0  0  0  0
 50 51  1  0  0  0  0
 50 52  2  0  0  0  0
 51 53  2  0  0  0  0
 52 54  1  0  0  0  0
 53 55  1  0  0  0  0
 54 55  2  0  0  0  0
 49 50  1  0  0  0  0
M  END
> <NMREDATA_VERSION>
1.1

> <NMREDATA_LEVEL>
0

> <NMREDATA_SOLVENT>
toluene-d8

> <NMREDATA_TEMPERATURE>
248

> <NMREDATA_FORMULA>
C48H45NP2RhS

> <NMREDATA_SMILES>
c1ccc(cc1)CS[RhH2](P(c1ccccc1)(c1ccccc1)c1ccccc1)(P(c1ccccc1)(c1ccccc1)c1ccccc1)c1ccncc1

> <NMREDATA_ASSIGNMENT>
Rh25, 219.00, 25

> <NMREDATA_1D_103Rh>
219.00, L=Rh25

$$$$
