
  ACD/LABS03222417472D

113128  0  0  0  0  0  0  0  0  2 V2000
   23.5439  -11.5095    0.0000 C    0  0  0  0  0  0  0  0  0  0  0  0
   24.6957  -12.1745    0.0000 C    0  0  0  0  0  0  0  0  0  0  0  0
   22.3921  -12.1745    0.0000 C    0  0  0  0  0  0  0  0  0  0  0  0
   24.6957  -13.5045    0.0000 C    0  0  0  0  0  0  0  0  0  0  0  0
   22.3921  -13.5045    0.0000 C    0  0  0  0  0  0  0  0  0  0  0  0
   23.5439  -14.1695    0.0000 C    0  0  0  0  0  0  0  0  0  0  0  0
   21.9053   -8.0540    0.0000 C    0  0  0  0  0  0  0  0  0  0  0  0
   23.2353   -8.0540    0.0000 C    0  0  0  0  0  0  0  0  0  0  0  0
   21.2403   -9.2059    0.0000 C    0  0  0  0  0  0  0  0  0  0  0  0
   23.9003   -9.2059    0.0000 C    0  0  0  0  0  0  0  0  0  0  0  0
   21.9053  -10.3577    0.0000 C    0  0  0  0  0  0  0  0  0  0  0  0
   23.2353  -10.3577    0.0000 C    0  0  0  0  0  0  0  0  0  0  0  0
   19.2453  -14.9649    0.0000 C    0  0  0  0  0  0  0  0  0  0  0  0
   18.5803  -13.8131    0.0000 C    0  0  0  0  0  0  0  0  0  0  0  0
   20.5753  -14.9649    0.0000 C    0  0  0  0  0  0  0  0  0  0  0  0
   19.2453  -12.6613    0.0000 C    0  0  0  0  0  0  0  0  0  0  0  0
   21.2403  -13.8131    0.0000 C    0  0  0  0  0  0  0  0  0  0  0  0
   20.5753  -12.6613    0.0000 C    0  0  0  0  0  0  0  0  0  0  0  0
   22.0835   -8.3627    0.0000 C    0  0  0  0  0  0  0  0  0  0  0  0
   23.4135   -8.3627    0.0000 C    0  0  0  0  0  0  0  0  0  0  0  0
   21.4185   -9.5145    0.0000 C    0  0  0  0  0  0  0  0  0  0  0  0
   24.0785   -9.5145    0.0000 C    0  0  0  0  0  0  0  0  0  0  0  0
   22.0835  -10.6663    0.0000 C    0  0  0  0  0  0  0  0  0  0  0  0
   23.4135  -10.6663    0.0000 C    0  0  0  0  0  0  0  0  0  0  0  0
   18.0935   -8.3627    0.0000 C    0  0  0  0  0  0  0  0  0  0  0  0
   18.7585   -9.5145    0.0000 C    0  0  0  0  0  0  0  0  0  0  0  0
   16.7635   -8.3627    0.0000 C    0  0  0  0  0  0  0  0  0  0  0  0
   18.0935  -10.6663    0.0000 C    0  0  0  0  0  0  0  0  0  0  0  0
   16.0985   -9.5145    0.0000 C    0  0  0  0  0  0  0  0  0  0  0  0
   16.7635  -10.6663    0.0000 C    0  0  0  0  0  0  0  0  0  0  0  0
   15.9203  -11.5095    0.0000 C    0  0  0  0  0  0  0  0  0  0  0  0
   15.9203  -12.8395    0.0000 C    0  0  0  0  0  0  0  0  0  0  0  0
   14.7685  -10.8445    0.0000 C    0  0  0  0  0  0  0  0  0  0  0  0
   14.7685  -13.5045    0.0000 C    0  0  0  0  0  0  0  0  0  0  0  0
   13.6167  -11.5095    0.0000 C    0  0  0  0  0  0  0  0  0  0  0  0
   13.6167  -12.8395    0.0000 C    0  0  0  0  0  0  0  0  0  0  0  0
   10.1135   -8.3627    0.0000 Rh   0  5  0  0  0  0  0  0  0  0  0  0
    9.4485   -9.5145    0.0000 Cl   0  0  0  0  0  0  0  0  0  0  0  0
    9.4485   -7.2108    0.0000 P    0  0  0  0  0  0  0  0  0  0  0  0
    5.9930   -7.8758    0.0000 C    0  0  0  0  0  0  0  0  0  0  0  0
    7.1449   -7.2108    0.0000 C    0  0  0  0  0  0  0  0  0  0  0  0
    5.9930   -9.2058    0.0000 C    0  0  0  0  0  0  0  0  0  0  0  0
    8.2967   -7.8758    0.0000 C    0  0  0  0  0  0  0  0  0  0  0  0
    7.1449   -9.8708    0.0000 C    0  0  0  0  0  0  0  0  0  0  0  0
    8.2967   -9.2058    0.0000 C    0  0  0  0  0  0  0  0  0  0  0  0
   12.9039   -5.2158    0.0000 C    0  0  0  0  0  0  0  0  0  0  0  0
   12.9039   -6.5458    0.0000 C    0  0  0  0  0  0  0  0  0  0  0  0
   11.7521   -4.5508    0.0000 C    0  0  0  0  0  0  0  0  0  0  0  0
   11.7521   -7.2108    0.0000 C    0  0  0  0  0  0  0  0  0  0  0  0
   10.6003   -5.2158    0.0000 C    0  0  0  0  0  0  0  0  0  0  0  0
   10.6003   -6.5458    0.0000 C    0  0  0  0  0  0  0  0  0  0  0  0
    6.7885   -4.9072    0.0000 C    0  0  0  0  0  0  0  0  0  0  0  0
    7.4535   -3.7554    0.0000 C    0  0  0  0  0  0  0  0  0  0  0  0
    7.4535   -6.0590    0.0000 C    0  0  0  0  0  0  0  0  0  0  0  0
    8.7835   -3.7554    0.0000 C    0  0  0  0  0  0  0  0  0  0  0  0
    8.7835   -6.0590    0.0000 C    0  0  0  0  0  0  0  0  0  0  0  0
    9.4485   -4.9072    0.0000 C    0  0  0  0  0  0  0  0  0  0  0  0
   11.4435   -8.3627    0.0000 P    0  0  0  0  0  0  0  0  0  0  0  0
   12.5953   -5.0377    0.0000 C    0  0  0  0  0  0  0  0  0  0  0  0
   12.5953   -6.3677    0.0000 C    0  0  0  0  0  0  0  0  0  0  0  0
   11.4435   -4.3727    0.0000 C    0  0  0  0  0  0  0  0  0  0  0  0
   11.4435   -7.0327    0.0000 C    0  0  0  0  0  0  0  0  0  0  0  0
   10.2917   -5.0377    0.0000 C    0  0  0  0  0  0  0  0  0  0  0  0
   10.2917   -6.3677    0.0000 C    0  0  0  0  0  0  0  0  0  0  0  0
   11.4435   -9.6927    0.0000 C    0  0  0  0  0  0  0  0  0  0  0  0
   12.5953  -10.3577    0.0000 C    0  0  0  0  0  0  0  0  0  0  0  0
   10.2917  -10.3577    0.0000 C    0  0  0  0  0  0  0  0  0  0  0  0
   12.5953  -11.6877    0.0000 C    0  0  0  0  0  0  0  0  0  0  0  0
   10.2917  -11.6877    0.0000 C    0  0  0  0  0  0  0  0  0  0  0  0
   11.4435  -12.3527    0.0000 C    0  0  0  0  0  0  0  0  0  0  0  0
   12.7735   -8.3627    0.0000 C    0  0  0  0  0  0  0  0  0  0  0  0
   13.4385   -9.5145    0.0000 C    0  0  0  0  0  0  0  0  0  0  0  0
   14.7685   -9.5145    0.0000 P    0  3  0  0  0  0  0  0  0  0  0  0
   15.9203   -6.1895    0.0000 C    0  0  0  0  0  0  0  0  0  0  0  0
   15.9203   -7.5195    0.0000 C    0  0  0  0  0  0  0  0  0  0  0  0
   14.7685   -5.5245    0.0000 C    0  0  0  0  0  0  0  0  0  0  0  0
   14.7685   -8.1845    0.0000 C    0  0  0  0  0  0  0  0  0  0  0  0
   13.6167   -6.1895    0.0000 C    0  0  0  0  0  0  0  0  0  0  0  0
   13.6167   -7.5195    0.0000 C    0  0  0  0  0  0  0  0  0  0  0  0
   20.0885   -9.5145    0.0000 P    0  0  0  0  0  0  0  0  0  0  0  0
   20.0885  -10.8445    0.0000 C    0  0  0  0  0  0  0  0  0  0  0  0
   21.2403   -6.1895    0.0000 C    0  0  0  0  0  0  0  0  0  0  0  0
   21.2403   -7.5195    0.0000 C    0  0  0  0  0  0  0  0  0  0  0  0
   20.0885   -5.5245    0.0000 C    0  0  0  0  0  0  0  0  0  0  0  0
   20.0885   -8.1845    0.0000 C    0  0  0  0  0  0  0  0  0  0  0  0
   18.9367   -6.1895    0.0000 C    0  0  0  0  0  0  0  0  0  0  0  0
   18.9367   -7.5195    0.0000 C    0  0  0  0  0  0  0  0  0  0  0  0
   21.2403  -11.5095    0.0000 P    0  3  0  0  0  0  0  0  0  0  0  0
   34.0092  -10.4477    0.0000 C    0  0  0  0  0  0  0  0  0  0  0  0
   34.0092  -11.7777    0.0000 C    0  0  0  0  0  0  0  0  0  0  0  0
   32.8574   -9.7827    0.0000 C    0  0  0  0  0  0  0  0  0  0  0  0
   32.8574  -12.4427    0.0000 C    0  0  0  0  0  0  0  0  0  0  0  0
   31.7056  -10.4477    0.0000 C    0  0  0  0  0  0  0  0  0  0  0  0
   31.7056  -11.7777    0.0000 C    0  0  0  0  0  0  0  0  0  0  0  0
   36.1824   -9.6045    0.0000 C    0  0  0  0  0  0  0  0  0  0  0  0
   34.8524   -9.6045    0.0000 C    0  0  0  0  0  0  0  0  0  0  0  0
   36.8474   -8.4527    0.0000 C    0  0  0  0  0  0  0  0  0  0  0  0
   34.1874   -8.4527    0.0000 C    0  0  0  0  0  0  0  0  0  0  0  0
   36.1824   -7.3009    0.0000 C    0  0  0  0  0  0  0  0  0  0  0  0
   34.8524   -7.3009    0.0000 C    0  0  0  0  0  0  0  0  0  0  0  0
   31.5274   -8.4527    0.0000 C    0  0  0  0  0  0  0  0  0  0  0  0
   30.8624   -9.6045    0.0000 C    0  0  0  0  0  0  0  0  0  0  0  0
   30.8624   -7.3009    0.0000 C    0  0  0  0  0  0  0  0  0  0  0  0
   29.5324   -9.6045    0.0000 C    0  0  0  0  0  0  0  0  0  0  0  0
   29.5324   -7.3009    0.0000 C    0  0  0  0  0  0  0  0  0  0  0  0
   28.8674   -8.4527    0.0000 C    0  0  0  0  0  0  0  0  0  0  0  0
   32.8574   -8.4527    0.0000 B    0  5  0  0  0  0  0  0  0  0  0  0
   31.7056   -5.1277    0.0000 C    0  0  0  0  0  0  0  0  0  0  0  0
   32.8574   -4.4627    0.0000 C    0  0  0  0  0  0  0  0  0  0  0  0
   31.7056   -6.4577    0.0000 C    0  0  0  0  0  0  0  0  0  0  0  0
   34.0092   -5.1277    0.0000 C    0  0  0  0  0  0  0  0  0  0  0  0
   32.8574   -7.1227    0.0000 C    0  0  0  0  0  0  0  0  0  0  0  0
   34.0092   -6.4577    0.0000 C    0  0  0  0  0  0  0  0  0  0  0  0
  1  2  1  0  0  0  0
  1  3  2  0  0  0  0
  2  4  2  0  0  0  0
  3  5  1  0  0  0  0
  4  6  1  0  0  0  0
  5  6  2  0  0  0  0
  7  8  1  0  0  0  0
  7  9  2  0  0  0  0
  8 10  2  0  0  0  0
  9 11  1  0  0  0  0
 10 12  1  0  0  0  0
 11 12  2  0  0  0  0
 13 14  1  0  0  0  0
 13 15  2  0  0  0  0
 14 16  2  0  0  0  0
 15 17  1  0  0  0  0
 16 18  1  0  0  0  0
 17 18  2  0  0  0  0
 19 20  1  0  0  0  0
 19 21  2  0  0  0  0
 20 22  2  0  0  0  0
 21 23  1  0  0  0  0
 22 24  1  0  0  0  0
 23 24  2  0  0  0  0
 25 26  1  0  0  0  0
 25 27  2  0  0  0  0
 26 28  2  0  0  0  0
 27 29  1  0  0  0  0
 28 30  1  0  0  0  0
 29 30  2  0  0  0  0
 31 32  1  0  0  0  0
 31 33  2  0  0  0  0
 32 34  2  0  0  0  0
 33 35  1  0  0  0  0
 34 36  1  0  0  0  0
 35 36  2  0  0  0  0
 37 38  1  0  0  0  0
 37 39  1  0  0  0  0
 40 41  1  0  0  0  0
 40 42  2  0  0  0  0
 41 43  2  0  0  0  0
 42 44  1  0  0  0  0
 43 45  1  0  0  0  0
 44 45  2  0  0  0  0
 39 43  1  0  0  0  0
 46 47  1  0  0  0  0
 46 48  2  0  0  0  0
 47 49  2  0  0  0  0
 48 50  1  0  0  0  0
 49 51  1  0  0  0  0
 50 51  2  0  0  0  0
 39 51  1  0  0  0  0
 52 53  1  0  0  0  0
 52 54  2  0  0  0  0
 53 55  2  0  0  0  0
 54 56  1  0  0  0  0
 55 57  1  0  0  0  0
 56 57  2  0  0  0  0
 39 56  1  0  0  0  0
 37 58  1  0  0  0  0
 59 60  1  0  0  0  0
 59 61  2  0  0  0  0
 60 62  2  0  0  0  0
 61 63  1  0  0  0  0
 62 64  1  0  0  0  0
 63 64  2  0  0  0  0
 58 62  1  0  0  0  0
 65 66  1  0  0  0  0
 65 67  2  0  0  0  0
 66 68  2  0  0  0  0
 67 69  1  0  0  0  0
 68 70  1  0  0  0  0
 69 70  2  0  0  0  0
 58 65  1  0  0  0  0
 58 71  1  0  0  0  0
 71 72  1  0  0  0  0
 72 73  1  0  0  0  0
 74 75  1  0  0  0  0
 74 76  2  0  0  0  0
 75 77  2  0  0  0  0
 76 78  1  0  0  0  0
 77 79  1  0  0  0  0
 78 79  2  0  0  0  0
 73 77  1  0  0  0  0
 33 73  1  0  0  0  0
 29 73  1  0  0  0  0
 26 80  1  0  0  0  0
 80 81  2  0  0  0  0
 21 80  1  0  0  0  0
 82 83  1  0  0  0  0
 82 84  2  0  0  0  0
 83 85  2  0  0  0  0
 84 86  1  0  0  0  0
 85 87  1  0  0  0  0
 86 87  2  0  0  0  0
 80 85  1  0  0  0  0
 81 88  1  0  0  0  0
 18 88  1  0  0  0  0
 11 88  1  0  0  0  0
  3 88  1  0  0  0  0
 89 90  1  0  0  0  0
 89 91  2  0  0  0  0
 90 92  2  0  0  0  0
 91 93  1  0  0  0  0
 92 94  1  0  0  0  0
 93 94  2  0  0  0  0
 95 96  1  0  0  0  0
 95 97  2  0  0  0  0
 96 98  2  0  0  0  0
 97 99  1  0  0  0  0
 98100  1  0  0  0  0
 99100  2  0  0  0  0
101102  1  0  0  0  0
101103  2  0  0  0  0
102104  2  0  0  0  0
103105  1  0  0  0  0
104106  1  0  0  0  0
105106  2  0  0  0  0
101107  1  0  0  0  0
 98107  1  0  0  0  0
108109  1  0  0  0  0
108110  2  0  0  0  0
109111  2  0  0  0  0
110112  1  0  0  0  0
111113  1  0  0  0  0
112113  2  0  0  0  0
107112  1  0  0  0  0
 91107  1  0  0  0  0
M  END
> <NMREDATA_VERSION>
1.1

> <NMREDATA_LEVEL>
0

> <NMREDATA_SOLVENT>
CD2Cl2

> <NMREDATA_TEMPERATURE>
298

> <NMREDATA_FORMULA>
C105H93BClP5Rh

> <NMREDATA_SMILES>
c1ccc(cc1)[B](c1ccccc1)(c1ccccc1)c1ccccc1.Cl[Rh](P(c1ccccc1)(c1ccccc1)c1ccccc1)P(c1ccccc1)(c1ccccc1)CCP(c1ccccc1)(c1ccccc1)c1ccc(cc1)P(=CP(c1ccccc1)(c1ccccc1)c1ccccc1)(c1ccccc1)c1ccccc1

> <NMREDATA_ASSIGNMENT>
Rh37, 32.00, 37

> <NMREDATA_1D_103Rh>
32.00, L=Rh37

$$$$
