
  ACD/LABS04012415132D

 37 39  0  0  0  0  0  0  0  0  1 V2000
   22.5049   -5.7744    0.0000 C    0  0  0  0  0  0  0  0  0  0  0  0
   22.2778   -7.0835    0.0000 C    0  0  0  0  0  0  0  0  0  0  0  0
   21.4803   -4.9222    0.0000 C    0  0  0  0  0  0  0  0  0  0  0  0
   21.0254   -7.5403    0.0000 C    0  0  0  0  0  0  0  0  0  0  0  0
   20.2283   -5.3787    0.0000 C    0  0  0  0  0  0  0  0  0  0  0  0
   20.0010   -6.6875    0.0000 C    0  0  0  0  0  0  0  0  0  0  0  0
   15.4779  -14.2144    0.0000 O    0  0  0  0  0  0  0  0  0  0  0  0
   15.4775  -12.8832    0.0000 N    0  0  0  0  0  0  0  0  0  0  0  0
   16.6294  -12.2181    0.0000 C    0  0  0  0  0  0  0  0  0  0  0  0
   17.7821  -12.8841    0.0000 C    0  0  0  0  0  0  0  0  0  0  0  0
   16.6290  -10.8870    0.0000 C    0  0  0  0  0  0  0  0  0  0  0  0
   15.4810  -10.2291    0.0000 C    0  0  0  0  0  0  0  0  0  0  0  0
   17.7813  -10.2217    0.0000 N    0  0  0  0  0  0  0  0  0  0  0  0
   17.7855   -8.8986    0.0000 O    0  0  0  0  0  0  0  0  0  0  0  0
   24.2296  -12.6640    0.0000 O    0  0  0  0  0  0  0  0  0  0  0  0
   22.9208  -12.4366    0.0000 N    0  0  0  0  0  0  0  0  0  0  0  0
   22.4642  -11.1846    0.0000 C    0  0  0  0  0  0  0  0  0  0  0  0
   23.3165  -10.1600    0.0000 C    0  0  0  0  0  0  0  0  0  0  0  0
   21.1549  -10.9571    0.0000 C    0  0  0  0  0  0  0  0  0  0  0  0
   20.2983  -11.9743    0.0000 C    0  0  0  0  0  0  0  0  0  0  0  0
   20.6983   -9.7051    0.0000 N    0  0  0  0  0  0  0  0  0  0  0  0
   19.3818   -9.4822    0.0000 O    0  0  0  0  0  0  0  0  0  0  0  0
   18.9297   -8.2380    0.0000 Rh   0  0  0  0  0  0  0  0  0  0  0  0
   20.1817   -7.7815    0.0000 Cl   0  0  0  0  0  0  0  0  0  0  0  0
   18.6961   -6.9290    0.0000 P    0  0  0  0  0  0  0  0  0  0  0  0
   18.4624   -5.6197    0.0000 C    0  0  0  0  0  0  0  0  0  0  0  0
   17.2075   -5.1667    0.0000 C    0  0  0  0  0  0  0  0  0  0  0  0
   19.4718   -4.7603    0.0000 C    0  0  0  0  0  0  0  0  0  0  0  0
   16.9741   -3.8572    0.0000 C    0  0  0  0  0  0  0  0  0  0  0  0
   19.2383   -3.4513    0.0000 C    0  0  0  0  0  0  0  0  0  0  0  0
   17.9834   -2.9983    0.0000 C    0  0  0  0  0  0  0  0  0  0  0  0
   17.3870   -7.1623    0.0000 C    0  0  0  0  0  0  0  0  0  0  0  0
   16.9417   -8.4127    0.0000 C    0  0  0  0  0  0  0  0  0  0  0  0
   16.5313   -6.1407    0.0000 C    0  0  0  0  0  0  0  0  0  0  0  0
   15.6324   -8.6464    0.0000 C    0  0  0  0  0  0  0  0  0  0  0  0
   15.2220   -6.3744    0.0000 C    0  0  0  0  0  0  0  0  0  0  0  0
   14.7765   -7.6250    0.0000 C    0  0  0  0  0  0  0  0  0  0  0  0
  1  2  1  0  0  0  0
  1  3  2  0  0  0  0
  2  4  2  0  0  0  0
  3  5  1  0  0  0  0
  4  6  1  0  0  0  0
  5  6  2  0  0  0  0
  7  8  1  0  0  0  0
  8  9  2  0  0  0  0
  9 10  1  0  0  0  0
  9 11  1  0  0  0  0
 11 12  1  0  0  0  0
 11 13  2  0  0  0  0
 13 14  1  0  0  0  0
 15 16  1  0  0  0  0
 16 17  2  0  0  0  0
 17 18  1  0  0  0  0
 17 19  1  0  0  0  0
 19 20  1  0  0  0  0
 19 21  2  0  0  0  0
 21 22  1  0  0  0  0
 22 23  1  0  0  0  0
 14 23  1  0  0  0  0
 23 24  1  0  0  0  0
 23 25  1  0  0  0  0
 26 27  1  0  0  0  0
 26 28  2  0  0  0  0
 27 29  2  0  0  0  0
 28 30  1  0  0  0  0
 29 31  1  0  0  0  0
 30 31  2  0  0  0  0
 25 26  1  0  0  0  0
 32 33  1  0  0  0  0
 32 34  2  0  0  0  0
 33 35  2  0  0  0  0
 34 36  1  0  0  0  0
 35 37  1  0  0  0  0
 36 37  2  0  0  0  0
 25 32  1  0  0  0  0
  6 25  1  0  0  0  0
M  END
> <NMREDATA_VERSION>
1.1

> <NMREDATA_LEVEL>
0

> <NMREDATA_SOLVENT>
DCCl3

> <NMREDATA_TEMPERATURE>
298

> <NMREDATA_FORMULA>
C26H30ClN4O4PRh

> <NMREDATA_SMILES>
O/N=C(/C(=N/O[Rh](P(c1ccccc1)(c1ccccc1)c1ccccc1)(O/N=C(/C(=N/O)/C)\C)Cl)/C)\C

> <NMREDATA_ASSIGNMENT>
Rh23, 2628.00, 23

> <NMREDATA_1D_103Rh>
2628.00, L=Rh23

$$$$
