
  ACD/LABS03242411312D

 33 36  0  0  0  0  0  0  0  0  1 V2000
   18.6717   -5.3822    0.0000 N    0  0  0  0  0  0  0  0  0  0  0  0
   18.6717   -6.7122    0.0000 C    0  0  0  0  0  0  0  0  0  0  0  0
   17.5199   -4.7172    0.0000 C    0  0  0  0  0  0  0  0  0  0  0  0
   17.5199   -7.3772    0.0000 C    0  0  0  0  0  0  0  0  0  0  0  0
   16.3681   -5.3822    0.0000 C    0  0  0  0  0  0  0  0  0  0  0  0
   16.3681   -6.7122    0.0000 C    0  0  0  0  0  0  0  0  0  0  0  0
   19.8236   -7.3772    0.0000 C    0  0  0  0  0  0  0  0  0  0  0  0
   20.9754   -6.7122    0.0000 C    0  0  0  0  0  0  0  0  0  0  0  0
   19.8236   -8.7072    0.0000 C    0  0  0  0  0  0  0  0  0  0  0  0
   22.1272   -7.3772    0.0000 C    0  0  0  0  0  0  0  0  0  0  0  0
   20.9754   -9.3722    0.0000 N    0  0  0  0  0  0  0  0  0  0  0  0
   22.1272   -8.7072    0.0000 C    0  0  0  0  0  0  0  0  0  0  0  0
   17.5199   -8.7072    0.0000 C    0  0  0  0  0  0  0  0  0  0  0  0
   18.6717   -9.3722    0.0000 C    0  0  0  0  0  0  0  0  0  0  0  0
   16.3681   -9.3722    0.0000 C    0  0  0  0  0  0  0  0  0  0  0  0
   18.6717  -10.7022    0.0000 C    0  0  0  0  0  0  0  0  0  0  0  0
   16.3681  -10.7022    0.0000 N    0  0  0  0  0  0  0  0  0  0  0  0
   17.5199  -11.3672    0.0000 C    0  0  0  0  0  0  0  0  0  0  0  0
   15.2163   -7.3772    0.0000 C    0  0  0  0  0  0  0  0  0  0  0  0
   15.2163   -8.7072    0.0000 C    0  0  0  0  0  0  0  0  0  0  0  0
   14.0645   -6.7122    0.0000 C    0  0  0  0  0  0  0  0  0  0  0  0
   14.0645   -9.3722    0.0000 C    0  0  0  0  0  0  0  0  0  0  0  0
   12.9127   -7.3772    0.0000 C    0  0  0  0  0  0  0  0  0  0  0  0
   12.9127   -8.7072    0.0000 C    0  0  0  0  0  0  0  0  0  0  0  0
   11.7609   -9.3722    0.0000 C    0  0  0  0  0  0  0  0  0  0  0  0
   11.0959   -8.2204    0.0000 C    0  0  0  0  0  0  0  0  0  0  0  0
   12.4259  -10.5240    0.0000 C    0  0  0  0  0  0  0  0  0  0  0  0
   10.6091  -10.0372    0.0000 C    0  0  0  0  0  0  0  0  0  0  0  0
   19.8236   -4.7172    0.0000 Rh   0  0  0  0  0  0  0  0  0  0  0  0
   19.1586   -3.5654    0.0000 Br   0  0  0  0  0  0  0  0  0  0  0  0
   20.4886   -5.8690    0.0000 Br   0  0  0  0  0  0  0  0  0  0  0  0
   20.9754   -4.0522    0.0000 C    0  0  0  0  0  0  0  0  0  0  0  0
   22.1272   -4.7172    0.0000 C    0  0  0  0  0  0  0  0  0  0  0  0
  1  2  1  0  0  0  0
  1  3  2  0  0  0  0
  2  4  2  0  0  0  0
  3  5  1  0  0  0  0
  4  6  1  0  0  0  0
  5  6  2  0  0  0  0
  7  8  1  0  0  0  0
  7  9  2  0  0  0  0
  8 10  2  0  0  0  0
  9 11  1  0  0  0  0
 10 12  1  0  0  0  0
 11 12  2  0  0  0  0
  2  7  1  0  0  0  0
 13 14  1  0  0  0  0
 13 15  2  0  0  0  0
 14 16  2  0  0  0  0
 15 17  1  0  0  0  0
 16 18  1  0  0  0  0
 17 18  2  0  0  0  0
  4 13  1  0  0  0  0
 19 20  1  0  0  0  0
 19 21  2  0  0  0  0
 20 22  2  0  0  0  0
 21 23  1  0  0  0  0
 22 24  1  0  0  0  0
 23 24  2  0  0  0  0
  6 19  1  0  0  0  0
 25 26  1  0  0  0  0
 25 27  1  0  0  0  0
 25 28  1  0  0  0  0
 24 25  1  0  0  0  0
 29 30  1  0  0  0  0
 29 31  1  0  0  0  0
 29 32  1  0  0  0  0
  1 29  1  0  0  0  0
 32 33  1  0  0  0  0
M  END
> <NMREDATA_VERSION>
1.1

> <NMREDATA_LEVEL>
0

> <NMREDATA_SOLVENT>
CD2Cl2

> <NMREDATA_TEMPERATURE>
298

> <NMREDATA_FORMULA>
C27H29Br2N3Rh

> <NMREDATA_SMILES>
CC[Rh](N1=CC=C(C(=C1c1cccnc1)c1cccnc1)c1ccc(cc1)C(C)(C)C)(Br)Br

> <NMREDATA_ASSIGNMENT>
Rh29, 3365.00, 29

> <NMREDATA_1D_103Rh>
3365.00, L=Rh29

$$$$
