
  ACD/LABS02122411172D

 23 24  0  0  0  0  0  0  0  0  1 V2000
   19.0068   -6.6366    0.0000 Rh   0  0  0  0  0  0  0  0  0  0  0  0
   21.8571   -6.1394    0.0000 C    0  0  0  0  0  0  0  0  0  0  0  0
   22.3100   -4.8963    0.0000 C    0  0  0  0  0  0  0  0  0  0  0  0
   23.6241   -4.6657    0.0000 C    0  0  0  0  0  0  0  0  0  0  0  0
   24.4765   -5.6866    0.0000 C    0  0  0  0  0  0  0  0  0  0  0  0
   22.7096   -7.1608    0.0000 O    0  0  0  0  0  0  0  0  0  0  0  0
   24.0859   -3.4224    0.0000 O    0  0  0  0  0  0  0  0  0  0  0  0
   18.1538   -5.6162    0.0000 C    0  0  0  0  0  0  0  0  0  0  0  0
   16.8845   -6.0139    0.0000 C    0  0  0  0  0  0  0  0  0  0  0  0
   18.7700   -4.4376    0.0000 C    0  0  0  0  0  0  0  0  0  0  0  0
   18.3723   -3.1685    0.0000 C    0  0  0  0  0  0  0  0  0  0  0  0
   15.7060   -5.3977    0.0000 C    0  0  0  0  0  0  0  0  0  0  0  0
   17.1938   -2.5523    0.0000 C    0  0  0  0  0  0  0  0  0  0  0  0
   15.3084   -4.1284    0.0000 C    0  0  0  0  0  0  0  0  0  0  0  0
   15.9247   -2.9498    0.0000 C    0  0  0  0  0  0  0  0  0  0  0  0
   18.5496   -7.8856    0.0000 C    0  0  0  0  0  0  0  0  0  0  0  0
   19.5286   -8.7860    0.0000 C    0  0  0  0  0  0  0  0  0  0  0  0
   17.2208   -7.9412    0.0000 C    0  0  0  0  0  0  0  0  0  0  0  0
   16.3206   -8.9202    0.0000 C    0  0  0  0  0  0  0  0  0  0  0  0
   19.5842  -10.1147    0.0000 C    0  0  0  0  0  0  0  0  0  0  0  0
   16.3762  -10.2489    0.0000 C    0  0  0  0  0  0  0  0  0  0  0  0
   18.6838  -11.0937    0.0000 C    0  0  0  0  0  0  0  0  0  0  0  0
   17.3550  -11.1493    0.0000 C    0  0  0  0  0  0  0  0  0  0  0  0
  1  2  1  0  0  0  0
  2  3  1  0  0  0  0
  3  4  1  0  0  0  0
  4  5  1  0  0  0  0
  2  6  2  0  0  0  0
  4  7  2  0  0  0  0
  8  9  1  0  0  0  0
  8 10  1  0  0  0  0
  9 12  1  0  0  0  0
 10 11  1  0  0  0  0
 11 13  1  0  0  0  0
 12 14  1  0  0  0  0
 13 15  2  0  0  0  0
 14 15  1  0  0  0  0
  1  8  1  0  0  0  0
 16 17  1  0  0  0  0
 16 18  1  0  0  0  0
 17 20  1  0  0  0  0
 18 19  1  0  0  0  0
 19 21  1  0  0  0  0
 20 22  1  0  0  0  0
 21 23  2  0  0  0  0
 22 23  1  0  0  0  0
  1 16  1  0  0  0  0
M  END
> <NMREDATA_VERSION>
1.1

> <NMREDATA_LEVEL>
0

> <NMREDATA_SOLVENT>
DCCl3

> <NMREDATA_TEMPERATURE>
270

> <NMREDATA_FORMULA>
C20H31O2Rh

> <NMREDATA_SMILES>
CC(=O)CC(=O)[Rh](C1CCCC=CCC1)C1CCCC=CCC1

> <NMREDATA_ASSIGNMENT>
Rh1, 1296.00, 1

> <NMREDATA_1D_103Rh>
1296.00, L=Rh1

$$$$
