
  ACD/LABS02222414112D

 11 11  0  0  0  0  0  0  0  0  1 V2000
   13.2117   -8.8610    0.0000 C    0  0  0  0  0  0  0  0  0  0  0  0
   14.4267   -8.3200    0.0000 C    0  0  0  0  0  0  0  0  0  0  0  0
   13.3507  -10.1837    0.0000 C    0  0  0  0  0  0  0  0  0  0  0  0
   15.3167   -9.3084    0.0000 C    0  0  0  0  0  0  0  0  0  0  0  0
   14.6517  -10.4602    0.0000 C    0  0  0  0  0  0  0  0  0  0  0  0
   15.7277  -11.2420    0.0000 C    0  0  0  0  0  0  0  0  0  0  0  0
   14.5126  -11.7830    0.0000 Rh   0  0  0  0  0  0  0  0  0  0  0  0
   15.5886  -12.5647    0.0000 C    0  0  0  0  0  0  0  0  0  0  0  0
   13.2976  -12.3239    0.0000 C    0  0  0  0  0  0  0  0  0  0  0  0
   16.6646  -13.3465    0.0000 O    0  0  0  0  0  0  0  0  0  0  0  0
   12.0826  -12.8649    0.0000 O    0  0  0  0  0  0  0  0  0  0  0  0
  1  2  1  0  0  0  0
  1  3  2  0  0  0  0
  2  4  2  0  0  0  0
  3  5  1  0  0  0  0
  4  5  1  0  0  0  0
  5  6  1  0  0  0  0
  5  7  1  0  0  0  0
  7  8  1  0  0  0  0
  7  9  1  0  0  0  0
  8 10  3  0  0  0  0
  9 11  3  0  0  0  0
M  END
> <NMREDATA_VERSION>
1.1

> <NMREDATA_LEVEL>
0

> <NMREDATA_SOLVENT>
C6D6

> <NMREDATA_TEMPERATURE>
298

> <NMREDATA_FORMULA>
C8H7O2Rh

> <NMREDATA_SMILES>
[O]#C[Rh](C1(C)C=CC=C1)C#[O]

> <NMREDATA_ASSIGNMENT>
Rh7, -1310.00, 7

> <NMREDATA_1D_103Rh>
-1310.00, L=Rh7

$$$$
