
  ACD/LABS03222418512D

 24 25  0  0  0  0  0  0  0  0  1 V2000
   23.1143  -10.2050    0.0000 C    0  0  0  0  0  0  0  0  0  0  0  0
   23.1139   -8.8741    0.0000 C    0  0  0  0  0  0  0  0  0  0  0  0
   21.9625  -10.8700    0.0000 C    0  0  0  0  0  0  0  0  0  0  0  0
   21.9706   -8.2242    0.0000 C    0  0  0  0  0  0  0  0  0  0  0  0
   20.8181  -10.1996    0.0000 C    0  0  0  0  0  0  0  0  0  0  0  0
   20.8188   -8.8892    0.0000 C    0  0  0  0  0  0  0  0  0  0  0  0
   15.0684  -12.2092    0.0000 C    0  0  0  0  0  0  0  0  0  0  0  0
   13.9166  -12.8742    0.0000 C    0  0  0  0  0  0  0  0  0  0  0  0
   16.2114  -12.8593    0.0000 C    0  0  0  0  0  0  0  0  0  0  0  0
   13.9155  -14.1848    0.0000 C    0  0  0  0  0  0  0  0  0  0  0  0
   16.2198  -14.1855    0.0000 C    0  0  0  0  0  0  0  0  0  0  0  0
   15.0680  -14.8505    0.0000 C    0  0  0  0  0  0  0  0  0  0  0  0
   18.5147  -11.5294    0.0000 Rh   0  0  0  0  0  0  0  0  0  0  0  0
   19.6669  -12.1953    0.0000 C    0  0  0  0  0  0  0  0  0  0  0  0
   18.5155  -10.2190    0.0000 I    0  0  0  0  0  0  0  0  0  0  0  0
   18.5231  -12.8557    0.0000 I    0  0  0  0  0  0  0  0  0  0  0  0
   19.6663  -10.8646    0.0000 P    0  0  0  0  0  0  0  0  0  0  0  0
   17.3632  -12.1943    0.0000 P    0  0  0  0  0  0  0  0  0  0  0  0
   19.2114   -9.6333    0.0000 C    0  0  0  0  0  0  0  0  0  0  0  0
   20.5145  -11.8903    0.0000 C    0  0  0  0  0  0  0  0  0  0  0  0
   17.8274  -13.4417    0.0000 C    0  0  0  0  0  0  0  0  0  0  0  0
   16.7029  -11.0505    0.0000 C    0  0  0  0  0  0  0  0  0  0  0  0
   17.5074  -10.6888    0.0000 C    0  0  0  0  0  0  0  0  0  0  0  0
   16.4829   -9.8364    0.0000 O    0  0  0  0  0  0  0  0  0  0  0  0
  1  2  1  0  0  0  0
  1  3  2  0  0  0  0
  2  4  2  0  0  0  0
  3  5  1  0  0  0  0
  4  6  1  0  0  0  0
  5  6  2  0  0  0  0
  7  8  1  0  0  0  0
  7  9  2  0  0  0  0
  8 10  2  0  0  0  0
  9 11  1  0  0  0  0
 10 12  1  0  0  0  0
 11 12  2  0  0  0  0
 13 14  1  0  0  0  0
 13 15  1  0  0  0  0
 13 16  1  0  0  0  0
 13 17  1  0  0  0  0
 13 18  1  0  0  0  0
 17 19  1  0  0  0  0
 17 20  1  0  0  0  0
 18 21  1  0  0  0  0
 18 22  1  0  0  0  0
  9 18  1  0  0  0  0
  5 17  1  0  0  0  0
 13 23  1  0  0  0  0
 23 24  3  0  0  0  0
M  END
> <NMREDATA_VERSION>
1.1

> <NMREDATA_LEVEL>
0

> <NMREDATA_SOLVENT>
C6D6

> <NMREDATA_TEMPERATURE>
297

> <NMREDATA_FORMULA>
C18H27I2OP2Rh

> <NMREDATA_SMILES>
[O]#C[Rh](P(c1ccccc1)(C)C)(P(c1ccccc1)(C)C)(I)(I)C

> <NMREDATA_ASSIGNMENT>
Rh13, 53.00, 13

> <NMREDATA_1D_103Rh>
53.00, L=Rh13

$$$$
