
  ACD/LABS03112411572D

 63 70  0  0  0  0  0  0  0  0  1 V2000
   17.5440  -23.0633    0.0000 P    0  0  0  0  0  0  0  0  0  0  0  0
   16.5269  -22.1990    0.0000 C    0  0  0  0  0  0  0  0  0  0  0  0
   15.2221  -21.9579    0.0000 P    0  0  0  0  0  0  0  0  0  0  0  0
   18.7951  -22.6174    0.0000 C    0  0  0  0  0  0  0  0  0  0  0  0
   19.8122  -23.4817    0.0000 C    0  0  0  0  0  0  0  0  0  0  0  0
   19.0407  -21.3050    0.0000 C    0  0  0  0  0  0  0  0  0  0  0  0
   21.0633  -23.0358    0.0000 C    0  0  0  0  0  0  0  0  0  0  0  0
   20.2916  -20.8596    0.0000 C    0  0  0  0  0  0  0  0  0  0  0  0
   21.3040  -21.7307    0.0000 C    0  0  0  0  0  0  0  0  0  0  0  0
   17.5287  -24.3851    0.0000 C    0  0  0  0  0  0  0  0  0  0  0  0
   16.3728  -25.0389    0.0000 C    0  0  0  0  0  0  0  0  0  0  0  0
   18.6765  -25.0581    0.0000 C    0  0  0  0  0  0  0  0  0  0  0  0
   16.3646  -26.3661    0.0000 C    0  0  0  0  0  0  0  0  0  0  0  0
   18.6639  -26.3929    0.0000 C    0  0  0  0  0  0  0  0  0  0  0  0
   17.5080  -27.0467    0.0000 C    0  0  0  0  0  0  0  0  0  0  0  0
   15.6742  -20.7137    0.0000 C    0  0  0  0  0  0  0  0  0  0  0  0
   14.8216  -19.6882    0.0000 C    0  0  0  0  0  0  0  0  0  0  0  0
   16.9878  -20.4784    0.0000 C    0  0  0  0  0  0  0  0  0  0  0  0
   15.2857  -18.4408    0.0000 C    0  0  0  0  0  0  0  0  0  0  0  0
   17.4478  -19.2381    0.0000 C    0  0  0  0  0  0  0  0  0  0  0  0
   16.5954  -18.2134    0.0000 C    0  0  0  0  0  0  0  0  0  0  0  0
   14.7701  -23.2020    0.0000 C    0  0  0  0  0  0  0  0  0  0  0  0
   15.6225  -24.2267    0.0000 C    0  0  0  0  0  0  0  0  0  0  0  0
   13.4609  -23.4297    0.0000 C    0  0  0  0  0  0  0  0  0  0  0  0
   15.1702  -25.4714    0.0000 C    0  0  0  0  0  0  0  0  0  0  0  0
   13.0041  -24.6820    0.0000 C    0  0  0  0  0  0  0  0  0  0  0  0
   13.8489  -25.7023    0.0000 C    0  0  0  0  0  0  0  0  0  0  0  0
   10.8836  -18.5619    0.0000 P    0  0  0  0  0  0  0  0  0  0  0  0
    9.9271  -19.4740    0.0000 C    0  0  0  0  0  0  0  0  0  0  0  0
    7.0489  -19.1545    0.0000 P    0  0  0  0  0  0  0  0  0  0  0  0
   11.6751  -17.4933    0.0000 C    0  0  0  0  0  0  0  0  0  0  0  0
   12.9982  -17.6322    0.0000 C    0  0  0  0  0  0  0  0  0  0  0  0
   11.1404  -16.2724    0.0000 C    0  0  0  0  0  0  0  0  0  0  0  0
   13.7895  -16.5629    0.0000 C    0  0  0  0  0  0  0  0  0  0  0  0
   11.9241  -15.1986    0.0000 C    0  0  0  0  0  0  0  0  0  0  0  0
   13.2548  -15.3420    0.0000 C    0  0  0  0  0  0  0  0  0  0  0  0
    9.9639  -17.6009    0.0000 C    0  0  0  0  0  0  0  0  0  0  0  0
   10.3349  -16.3194    0.0000 C    0  0  0  0  0  0  0  0  0  0  0  0
    8.6729  -17.9206    0.0000 C    0  0  0  0  0  0  0  0  0  0  0  0
    9.4146  -15.3582    0.0000 C    0  0  0  0  0  0  0  0  0  0  0  0
    7.7526  -16.9593    0.0000 C    0  0  0  0  0  0  0  0  0  0  0  0
    8.1241  -15.6781    0.0000 C    0  0  0  0  0  0  0  0  0  0  0  0
    6.2655  -20.2278    0.0000 C    0  0  0  0  0  0  0  0  0  0  0  0
    6.7921  -21.4440    0.0000 C    0  0  0  0  0  0  0  0  0  0  0  0
    4.9349  -20.0844    0.0000 C    0  0  0  0  0  0  0  0  0  0  0  0
    6.0085  -22.5177    0.0000 C    0  0  0  0  0  0  0  0  0  0  0  0
    4.1507  -21.1579    0.0000 C    0  0  0  0  0  0  0  0  0  0  0  0
    4.6854  -22.3788    0.0000 C    0  0  0  0  0  0  0  0  0  0  0  0
    6.3123  -18.0527    0.0000 C    0  0  0  0  0  0  0  0  0  0  0  0
    6.8960  -16.8641    0.0000 C    0  0  0  0  0  0  0  0  0  0  0  0
    4.9838  -18.1361    0.0000 C    0  0  0  0  0  0  0  0  0  0  0  0
    6.1640  -15.7555    0.0000 C    0  0  0  0  0  0  0  0  0  0  0  0
    4.2440  -17.0223    0.0000 C    0  0  0  0  0  0  0  0  0  0  0  0
    4.8351  -15.8386    0.0000 C    0  0  0  0  0  0  0  0  0  0  0  0
   12.5002  -20.9596    0.0000 Rh   0  0  0  0  0  0  0  0  0  0  0  0
   12.4525  -22.2844    0.0000 Cl   0  0  0  0  0  0  0  0  0  0  0  0
   13.3178  -19.9163    0.0000 C    0  0  0  0  0  0  0  0  0  0  0  0
   14.1353  -18.8722    0.0000 O    0  0  0  0  0  0  0  0  0  0  0  0
   11.2348  -21.3253    0.0000 Ru   0  0  0  0  0  0  0  0  0  0  0  0
   10.1313  -20.5755    0.0000 C    0  0  0  0  0  0  0  0  0  0  0  0
   10.9067  -22.6207    0.0000 C    0  0  0  0  0  0  0  0  0  0  0  0
    9.0274  -19.8253    0.0000 O    0  0  0  0  0  0  0  0  0  0  0  0
   10.5746  -23.9042    0.0000 O    0  0  0  0  0  0  0  0  0  0  0  0
  1  2  1  0  0  0  0
  2  3  1  0  0  0  0
  4  5  1  0  0  0  0
  4  6  2  0  0  0  0
  5  7  2  0  0  0  0
  6  8  1  0  0  0  0
  7  9  1  0  0  0  0
  8  9  2  0  0  0  0
  1  4  1  0  0  0  0
 10 11  1  0  0  0  0
 10 12  2  0  0  0  0
 11 13  2  0  0  0  0
 12 14  1  0  0  0  0
 13 15  1  0  0  0  0
 14 15  2  0  0  0  0
  1 10  1  0  0  0  0
 16 17  1  0  0  0  0
 16 18  2  0  0  0  0
 17 19  2  0  0  0  0
 18 20  1  0  0  0  0
 19 21  1  0  0  0  0
 20 21  2  0  0  0  0
  3 16  1  0  0  0  0
 22 23  1  0  0  0  0
 22 24  2  0  0  0  0
 23 25  2  0  0  0  0
 24 26  1  0  0  0  0
 25 27  1  0  0  0  0
 26 27  2  0  0  0  0
  3 22  1  0  0  0  0
 28 29  1  0  0  0  0
 29 30  1  0  0  0  0
 31 32  1  0  0  0  0
 31 33  2  0  0  0  0
 32 34  2  0  0  0  0
 33 35  1  0  0  0  0
 34 36  1  0  0  0  0
 35 36  2  0  0  0  0
 28 31  1  0  0  0  0
 37 38  1  0  0  0  0
 37 39  2  0  0  0  0
 38 40  2  0  0  0  0
 39 41  1  0  0  0  0
 40 42  1  0  0  0  0
 41 42  2  0  0  0  0
 28 37  1  0  0  0  0
 43 44  1  0  0  0  0
 43 45  2  0  0  0  0
 44 46  2  0  0  0  0
 45 47  1  0  0  0  0
 46 48  1  0  0  0  0
 47 48  2  0  0  0  0
 30 43  1  0  0  0  0
 49 50  1  0  0  0  0
 49 51  2  0  0  0  0
 50 52  2  0  0  0  0
 51 53  1  0  0  0  0
 52 54  1  0  0  0  0
 53 54  2  0  0  0  0
 30 49  1  0  0  0  0
 55 56  1  0  0  0  0
 55 57  1  0  0  0  0
 57 58  3  0  0  0  0
 28 55  1  0  0  0  0
  3 55  1  0  0  0  0
 59 60  1  0  0  0  0
 59 61  1  0  0  0  0
 60 62  3  0  0  0  0
 61 63  3  0  0  0  0
 55 59  1  0  0  0  0
M  END
> <NMREDATA_VERSION>
1.1

> <NMREDATA_LEVEL>
0

> <NMREDATA_FORMULA>
C53H46ClO3P4RhRu

> <NMREDATA_SMILES>
[O]#C[Ru]([Rh](P(c1ccccc1)(c1ccccc1)CP(c1ccccc1)c1ccccc1)(P(c1ccccc1)(c1ccccc1)CP(c1ccccc1)c1ccccc1)(C#[O])Cl)C#[O]

> <NMREDATA_ASSIGNMENT>
Rh55, 190.00, 55

> <NMREDATA_1D_103Rh>
190.00, L=Rh55

$$$$
