
  ACD/LABS03132412322D

 49 55  0  0  0  0  0  0  0  0  1 V2000
   12.1456   -5.0800    0.0000 C    0  0  0  0  0  0  0  0  0  0  0  0
   12.3793   -6.3893    0.0000 C    0  0  0  0  0  0  0  0  0  0  0  0
   13.1595   -4.2280    0.0000 C    0  0  0  0  0  0  0  0  0  0  0  0
   13.6343   -6.8424    0.0000 C    0  0  0  0  0  0  0  0  0  0  0  0
   14.4102   -4.6736    0.0000 C    0  0  0  0  0  0  0  0  0  0  0  0
   14.6439   -5.9829    0.0000 C    0  0  0  0  0  0  0  0  0  0  0  0
   17.7910   -7.4431    0.0000 C    0  0  0  0  0  0  0  0  0  0  0  0
   16.9396   -6.4294    0.0000 C    0  0  0  0  0  0  0  0  0  0  0  0
   17.3413   -8.6858    0.0000 C    0  0  0  0  0  0  0  0  0  0  0  0
   15.6228   -6.6673    0.0000 C    0  0  0  0  0  0  0  0  0  0  0  0
   16.0287   -8.9318    0.0000 C    0  0  0  0  0  0  0  0  0  0  0  0
   15.1727   -7.9102    0.0000 C    0  0  0  0  0  0  0  0  0  0  0  0
   11.5337   -7.5328    0.0000 C    0  0  0  0  0  0  0  0  0  0  0  0
   10.2938   -7.9925    0.0000 C    0  0  0  0  0  0  0  0  0  0  0  0
   12.5586   -8.3853    0.0000 C    0  0  0  0  0  0  0  0  0  0  0  0
   10.0667   -9.3018    0.0000 C    0  0  0  0  0  0  0  0  0  0  0  0
   12.3190   -9.6909    0.0000 C    0  0  0  0  0  0  0  0  0  0  0  0
   11.0865  -10.1463    0.0000 C    0  0  0  0  0  0  0  0  0  0  0  0
    8.8158   -9.1224    0.0000 C    0  0  0  0  0  0  0  0  0  0  0  0
    7.4846   -9.1229    0.0000 C    0  0  0  0  0  0  0  0  0  0  0  0
    9.4819   -7.9698    0.0000 C    0  0  0  0  0  0  0  0  0  0  0  0
    6.8193   -7.9705    0.0000 C    0  0  0  0  0  0  0  0  0  0  0  0
    8.8165   -6.8174    0.0000 C    0  0  0  0  0  0  0  0  0  0  0  0
    7.4853   -6.8179    0.0000 C    0  0  0  0  0  0  0  0  0  0  0  0
    7.2115   -9.8744    0.0000 C    0  0  0  0  0  0  0  0  0  0  0  0
    8.2289  -10.7312    0.0000 C    0  0  0  0  0  0  0  0  0  0  0  0
    5.9595  -10.3311    0.0000 C    0  0  0  0  0  0  0  0  0  0  0  0
    7.9967  -12.0325    0.0000 C    0  0  0  0  0  0  0  0  0  0  0  0
    5.7323  -11.6403    0.0000 C    0  0  0  0  0  0  0  0  0  0  0  0
    6.7447  -12.4892    0.0000 C    0  0  0  0  0  0  0  0  0  0  0  0
    9.5406  -13.7838    0.0000 C    0  0  0  0  0  0  0  0  0  0  0  0
    9.0838  -12.5318    0.0000 C    0  0  0  0  0  0  0  0  0  0  0  0
   10.8497  -14.0115    0.0000 C    0  0  0  0  0  0  0  0  0  0  0  0
    9.9289  -11.5112    0.0000 C    0  0  0  0  0  0  0  0  0  0  0  0
   11.7022  -12.9866    0.0000 C    0  0  0  0  0  0  0  0  0  0  0  0
   11.2423  -11.7463    0.0000 C    0  0  0  0  0  0  0  0  0  0  0  0
   13.8634   -9.4749    0.0000 Rh   0  0  0  0  0  0  0  0  0  0  0  0
   13.8679   -8.1517    0.0000 P    0  0  0  0  0  0  0  0  0  0  0  0
    9.4812  -10.2748    0.0000 P    0  0  0  0  0  0  0  0  0  0  0  0
   13.8763  -10.8094    0.0000 N    0  0  0  0  0  0  0  0  0  0  0  0
   12.7365  -11.4779    0.0000 C    0  0  0  0  0  0  0  0  0  0  0  0
   15.0322  -11.4632    0.0000 C    0  0  0  0  0  0  0  0  0  0  0  0
   12.7445  -12.8048    0.0000 C    0  0  0  0  0  0  0  0  0  0  0  0
   15.0369  -12.8024    0.0000 C    0  0  0  0  0  0  0  0  0  0  0  0
   13.8926  -13.4630    0.0000 C    0  0  0  0  0  0  0  0  0  0  0  0
   15.2026   -9.4702    0.0000 S    0  0  0  0  0  0  0  0  0  0  0  0
   16.0540  -10.4840    0.0000 C    0  0  0  0  0  0  0  0  0  0  0  0
   15.8269  -11.7932    0.0000 C    0  0  0  0  0  0  0  0  0  0  0  0
   17.3636  -10.2507    0.0000 C    0  0  0  0  0  0  0  0  0  0  0  0
  1  2  1  0  0  0  0
  1  3  2  0  0  0  0
  2  4  2  0  0  0  0
  3  5  1  0  0  0  0
  4  6  1  0  0  0  0
  5  6  2  0  0  0  0
  7  8  1  0  0  0  0
  7  9  2  0  0  0  0
  8 10  2  0  0  0  0
  9 11  1  0  0  0  0
 10 12  1  0  0  0  0
 11 12  2  0  0  0  0
 13 14  1  0  0  0  0
 13 15  2  0  0  0  0
 14 16  2  0  0  0  0
 15 17  1  0  0  0  0
 16 18  1  0  0  0  0
 17 18  2  0  0  0  0
 19 20  1  0  0  0  0
 19 21  2  0  0  0  0
 20 22  2  0  0  0  0
 21 23  1  0  0  0  0
 22 24  1  0  0  0  0
 23 24  2  0  0  0  0
 25 26  1  0  0  0  0
 25 27  2  0  0  0  0
 26 28  2  0  0  0  0
 27 29  1  0  0  0  0
 28 30  1  0  0  0  0
 29 30  2  0  0  0  0
 31 32  1  0  0  0  0
 31 33  2  0  0  0  0
 32 34  2  0  0  0  0
 33 35  1  0  0  0  0
 34 36  1  0  0  0  0
 35 36  2  0  0  0  0
 37 38  1  0  0  0  0
 37 39  1  0  0  0  0
 34 39  1  0  0  0  0
 26 39  1  0  0  0  0
 19 39  1  0  0  0  0
 15 38  1  0  0  0  0
 12 38  1  0  0  0  0
  4 38  1  0  0  0  0
 40 41  1  0  0  0  0
 40 42  2  0  0  0  0
 41 43  2  0  0  0  0
 42 44  1  0  0  0  0
 43 45  1  0  0  0  0
 44 45  2  0  0  0  0
 37 40  1  0  0  0  0
 37 46  1  0  0  0  0
 47 48  1  0  0  0  0
 47 49  1  0  0  0  0
 46 47  1  0  0  0  0
M  END
> <NMREDATA_VERSION>
1.1

> <NMREDATA_LEVEL>
0

> <NMREDATA_SOLVENT>
toluene-d8

> <NMREDATA_TEMPERATURE>
248

> <NMREDATA_FORMULA>
C44H45NP2RhS

> <NMREDATA_SMILES>
CC(S[Rh](P(c1ccccc1)(c1ccccc1)c1ccccc1)(P(c1ccccc1)(c1ccccc1)c1ccccc1)N1=CC=CC=C1)C

> <NMREDATA_ASSIGNMENT>
Rh37, 49.00, 37

> <NMREDATA_1D_103Rh>
49.00, L=Rh37

$$$$
