
  ACD/LABS04032413482D

 32 32  0  0  0  0  0  0  0  0  2 V2000
   13.5083  -14.6781    0.0000 Rh   0  5  0  0  0  0  0  0  0  0  0  0
   12.4347  -13.5083    0.0000 Br   0  0  0  0  0  0  0  0  0  0  0  0
   14.7902  -16.1202    0.0000 Br   0  0  0  0  0  0  0  0  0  0  0  0
   14.9665  -13.7807    0.0000 Sb   0  3  0  0  0  0  0  0  0  0  0  0
   11.6976  -16.0722    0.0000 Sb   0  3  0  0  0  0  0  0  0  0  0  0
   14.9185  -12.0692    0.0000 C    0  0  0  0  0  0  0  0  0  0  0  0
   10.1147  -15.4195    0.0000 C    0  0  0  0  0  0  0  0  0  0  0  0
   11.9238  -17.7693    0.0000 C    0  0  0  0  0  0  0  0  0  0  0  0
   15.8799  -14.8704    0.0000 C    0  0  0  0  0  0  0  0  0  0  0  0
   10.3409  -17.1167    0.0000 C    0  0  0  0  0  0  0  0  0  0  0  0
   10.5671  -18.8139    0.0000 C    0  0  0  0  0  0  0  0  0  0  0  0
    8.7579  -16.4640    0.0000 C    0  0  0  0  0  0  0  0  0  0  0  0
    9.2103  -19.8584    0.0000 C    0  0  0  0  0  0  0  0  0  0  0  0
    7.4013  -17.5085    0.0000 C    0  0  0  0  0  0  0  0  0  0  0  0
    7.6275  -19.2057    0.0000 C    0  0  0  0  0  0  0  0  0  0  0  0
   16.5672  -13.1730    0.0000 C    0  0  0  0  0  0  0  0  0  0  0  0
   16.8413  -11.4829    0.0000 C    0  0  0  0  0  0  0  0  0  0  0  0
   17.8940  -14.2555    0.0000 C    0  0  0  0  0  0  0  0  0  0  0  0
   18.4421  -10.8753    0.0000 C    0  0  0  0  0  0  0  0  0  0  0  0
   19.4946  -13.6478    0.0000 C    0  0  0  0  0  0  0  0  0  0  0  0
   19.7687  -11.9577    0.0000 C    0  0  0  0  0  0  0  0  0  0  0  0
   18.3316  -15.2229    0.0000 Sb   0  0  0  0  0  0  0  0  0  0  0  0
   11.6175  -19.7257    0.0000 Sb   0  0  0  0  0  0  0  0  0  0  0  0
   13.0436  -19.1328    0.0000 C    0  0  0  0  0  0  0  0  0  0  0  0
   12.7552  -20.7352    0.0000 C    0  0  0  0  0  0  0  0  0  0  0  0
   18.2675  -16.3446    0.0000 C    0  0  0  0  0  0  0  0  0  0  0  0
   20.0301  -15.7677    0.0000 C    0  0  0  0  0  0  0  0  0  0  0  0
   26.3516  -13.3801    0.0000 B    0  5  0  0  0  0  0  0  0  0  0  0
   26.3516  -11.8578    0.0000 F    0  0  0  0  0  0  0  0  0  0  0  0
   27.8739  -13.3801    0.0000 F    0  0  0  0  0  0  0  0  0  0  0  0
   24.8293  -13.3801    0.0000 F    0  0  0  0  0  0  0  0  0  0  0  0
   26.3516  -14.9024    0.0000 F    0  0  0  0  0  0  0  0  0  0  0  0
  1  2  1  0  0  0  0
  1  3  1  0  0  0  0
  1  4  1  0  0  0  0
  1  5  1  0  0  0  0
  4  6  1  0  0  0  0
  5  7  1  0  0  0  0
  5  8  1  0  0  0  0
  4  9  1  0  0  0  0
 10 11  1  0  0  0  0
 10 12  2  0  0  0  0
 11 13  2  0  0  0  0
 12 14  1  0  0  0  0
 13 15  1  0  0  0  0
 14 15  2  0  0  0  0
  5 10  1  0  0  0  0
 16 17  1  0  0  0  0
 16 18  2  0  0  0  0
 17 19  2  0  0  0  0
 18 20  1  0  0  0  0
 19 21  1  0  0  0  0
 20 21  2  0  0  0  0
  4 16  1  0  0  0  0
 18 22  1  0  0  0  0
 11 23  1  0  0  0  0
 23 24  1  0  0  0  0
 23 25  1  0  0  0  0
 22 26  1  0  0  0  0
 22 27  1  0  0  0  0
 28 29  1  0  0  0  0
 28 30  1  0  0  0  0
 28 31  1  0  0  0  0
 28 32  1  0  0  0  0
M  END
> <NMREDATA_VERSION>
1.1

> <NMREDATA_LEVEL>
0

> <NMREDATA_SOLVENT>
CD2Cl2

> <NMREDATA_TEMPERATURE>
300

> <NMREDATA_FORMULA>
C20H34BBr2F4RhSb4

> <NMREDATA_SMILES>
F[B](F)(F)F.C[Sb](c1ccccc1[SbH]([Rh]([SbH](c1ccccc1[Sb](C)C)(C)C)(Br)Br)(C)C)C

> <NMREDATA_ASSIGNMENT>
Rh1, 1757.00, 1

> <NMREDATA_1D_103Rh>
1757.00, L=Rh1

$$$$
