
  ACD/LABS04042410022D

 36 34  0  0  0  0  0  0  0  0  2 V2000
   17.2259  -10.6721    0.0000 Rh   0  7  0  0  0  0  0  0  0  0  0  0
   17.3060   -8.4287    0.0000 Se   0  0  0  0  0  0  0  0  0  0  0  0
   19.1969   -9.7106    0.0000 Se   0  0  0  0  0  0  0  0  0  0  0  0
   18.9725  -11.7937    0.0000 Se   0  0  0  0  0  0  0  0  0  0  0  0
   16.9215  -12.9795    0.0000 Se   0  0  0  0  0  0  0  0  0  0  0  0
   15.0306  -11.9219    0.0000 Se   0  0  0  0  0  0  0  0  0  0  0  0
   15.1908   -9.5183    0.0000 Se   0  0  0  0  0  0  0  0  0  0  0  0
   19.3619   -7.3376    0.0000 C    0  0  0  0  0  0  0  0  0  0  0  0
   21.4178   -6.2466    0.0000 N    0  0  0  0  0  0  0  0  0  0  0  0
   21.1265  -11.0120    0.0000 C    0  0  0  0  0  0  0  0  0  0  0  0
   23.0561  -12.3134    0.0000 N    0  0  0  0  0  0  0  0  0  0  0  0
   18.8625  -14.1186    0.0000 C    0  0  0  0  0  0  0  0  0  0  0  0
   18.7525  -16.4435    0.0000 N    0  0  0  0  0  0  0  0  0  0  0  0
   14.7709  -13.8696    0.0000 C    0  0  0  0  0  0  0  0  0  0  0  0
   12.6203  -14.7596    0.0000 N    0  0  0  0  0  0  0  0  0  0  0  0
   13.0220  -10.7461    0.0000 C    0  0  0  0  0  0  0  0  0  0  0  0
   11.0134   -9.5702    0.0000 N    0  0  0  0  0  0  0  0  0  0  0  0
   15.1726   -7.1909    0.0000 C    0  0  0  0  0  0  0  0  0  0  0  0
   15.1543   -4.8635    0.0000 N    0  0  0  0  0  0  0  0  0  0  0  0
   28.3386   -9.9108    0.0000 N    0  3  0  0  0  0  0  0  0  0  0  0
   28.7873   -9.1337    0.0000 C    0  0  0  0  0  0  0  0  0  0  0  0
   28.3386   -8.3566    0.0000 C    0  0  0  0  0  0  0  0  0  0  0  0
   28.7873   -7.5794    0.0000 C    0  0  0  0  0  0  0  0  0  0  0  0
   28.3386   -6.8023    0.0000 C    0  0  0  0  0  0  0  0  0  0  0  0
   29.1157  -10.3595    0.0000 C    0  0  0  0  0  0  0  0  0  0  0  0
   29.1157  -11.2568    0.0000 C    0  0  0  0  0  0  0  0  0  0  0  0
   29.8928  -11.7055    0.0000 C    0  0  0  0  0  0  0  0  0  0  0  0
   29.8928  -12.6029    0.0000 C    0  0  0  0  0  0  0  0  0  0  0  0
   27.5615   -9.4621    0.0000 C    0  0  0  0  0  0  0  0  0  0  0  0
   26.7843   -9.9108    0.0000 C    0  0  0  0  0  0  0  0  0  0  0  0
   26.0072   -9.4622    0.0000 C    0  0  0  0  0  0  0  0  0  0  0  0
   25.2301   -9.9108    0.0000 C    0  0  0  0  0  0  0  0  0  0  0  0
   27.8899  -10.6880    0.0000 C    0  0  0  0  0  0  0  0  0  0  0  0
   26.9926  -10.6880    0.0000 C    0  0  0  0  0  0  0  0  0  0  0  0
   26.5439  -11.4651    0.0000 C    0  0  0  0  0  0  0  0  0  0  0  0
   25.6465  -11.4651    0.0000 C    0  0  0  0  0  0  0  0  0  0  0  0
  1  2  1  0  0  0  0
  1  3  1  0  0  0  0
  1  4  1  0  0  0  0
  1  5  1  0  0  0  0
  1  6  1  0  0  0  0
  1  7  1  0  0  0  0
  8  9  3  0  0  0  0
  2  8  1  0  0  0  0
 10 11  3  0  0  0  0
  3 10  1  0  0  0  0
 12 13  3  0  0  0  0
  4 12  1  0  0  0  0
 14 15  3  0  0  0  0
  5 14  1  0  0  0  0
 16 17  3  0  0  0  0
  6 16  1  0  0  0  0
 18 19  3  0  0  0  0
  7 18  1  0  0  0  0
 20 21  1  0  0  0  0
 21 22  1  0  0  0  0
 22 23  1  0  0  0  0
 23 24  1  0  0  0  0
 20 25  1  0  0  0  0
 25 26  1  0  0  0  0
 26 27  1  0  0  0  0
 27 28  1  0  0  0  0
 20 29  1  0  0  0  0
 29 30  1  0  0  0  0
 30 31  1  0  0  0  0
 31 32  1  0  0  0  0
 20 33  1  0  0  0  0
 33 34  1  0  0  0  0
 34 35  1  0  0  0  0
 35 36  1  0  0  0  0
M  END
> <NMREDATA_VERSION>
1.1

> <NMREDATA_LEVEL>
0

> <NMREDATA_SOLVENT>
CD2Cl2

> <NMREDATA_TEMPERATURE>
243

> <NMREDATA_FORMULA>
C22H37N7RhSe6

> <NMREDATA_SMILES>
N#C[Se][Rh]([Se]C#N)([Se]C#N)([Se]C#N)([Se]C#N)[Se]C#N.CCCCN(CCCC)(CCCC)CCCC

> <NMREDATA_ASSIGNMENT>
Rh1, 2287.00, 1

> <NMREDATA_1D_103Rh>
2287.00, L=Rh1

$$$$
