
  ACD/LABS03152413262D

 62 68  0  0  0  0  0  0  0  0  2 V2000
   27.8980   -7.7156    0.0000 Cl   0  0  0  0  0  0  0  0  0  0  0  0
   28.6351   -6.4389    0.0000 O    0  0  0  0  0  0  0  0  0  0  0  0
   26.6213   -6.9785    0.0000 O    0  0  0  0  0  0  0  0  0  0  0  0
   29.1747   -8.4527    0.0000 O    0  0  0  0  0  0  0  0  0  0  0  0
   27.1609   -8.9923    0.0000 O    0  5  0  0  0  0  0  0  0  0  0  0
   13.2450  -11.8535    0.0000 Rh   0  3  0  0  0  0  0  0  0  0  0  0
   10.9130   -8.9473    0.0000 C    0  0  0  0  0  0  0  0  0  0  0  0
   12.3051   -9.1920    0.0000 C    0  0  0  0  0  0  0  0  0  0  0  0
   10.4331   -7.6213    0.0000 As   0  0  0  0  0  0  0  0  0  0  0  0
   11.3459   -6.5395    0.0000 C    0  0  0  0  0  0  0  0  0  0  0  0
   12.7279   -6.7939    0.0000 C    0  0  0  0  0  0  0  0  0  0  0  0
   10.8661   -5.2136    0.0000 C    0  0  0  0  0  0  0  0  0  0  0  0
   13.6401   -5.7121    0.0000 C    0  0  0  0  0  0  0  0  0  0  0  0
   11.7783   -4.1323    0.0000 C    0  0  0  0  0  0  0  0  0  0  0  0
   13.1602   -4.3861    0.0000 C    0  0  0  0  0  0  0  0  0  0  0  0
    9.0507   -7.3675    0.0000 C    0  0  0  0  0  0  0  0  0  0  0  0
    8.1384   -8.4493    0.0000 C    0  0  0  0  0  0  0  0  0  0  0  0
    8.5713   -6.0416    0.0000 C    0  0  0  0  0  0  0  0  0  0  0  0
    6.7463   -8.1950    0.0000 C    0  0  0  0  0  0  0  0  0  0  0  0
    7.1793   -5.7873    0.0000 C    0  0  0  0  0  0  0  0  0  0  0  0
    6.2670   -6.8690    0.0000 C    0  0  0  0  0  0  0  0  0  0  0  0
   12.7748  -10.5276    0.0000 P    0  0  0  0  0  0  0  0  0  0  0  0
   10.3772  -10.0952    0.0000 C    0  0  0  0  0  0  0  0  0  0  0  0
   11.4493  -10.9978    0.0000 C    0  0  0  0  0  0  0  0  0  0  0  0
    9.0507  -10.5654    0.0000 C    0  0  0  0  0  0  0  0  0  0  0  0
   11.2046  -12.3899    0.0000 C    0  0  0  0  0  0  0  0  0  0  0  0
    8.7969  -11.9570    0.0000 C    0  0  0  0  0  0  0  0  0  0  0  0
    9.8786  -12.8596    0.0000 C    0  0  0  0  0  0  0  0  0  0  0  0
   16.7532   -9.0886    0.0000 C    0  0  0  0  0  0  0  0  0  0  0  0
   16.4994  -10.4807    0.0000 C    0  0  0  0  0  0  0  0  0  0  0  0
   15.6714   -8.1763    0.0000 C    0  0  0  0  0  0  0  0  0  0  0  0
   15.1729  -10.9605    0.0000 C    0  0  0  0  0  0  0  0  0  0  0  0
   14.3455   -8.6562    0.0000 C    0  0  0  0  0  0  0  0  0  0  0  0
   14.1007  -10.0477    0.0000 C    0  0  0  0  0  0  0  0  0  0  0  0
   14.7779  -16.1140    0.0000 C    0  0  0  0  0  0  0  0  0  0  0  0
   14.5337  -14.7219    0.0000 C    0  0  0  0  0  0  0  0  0  0  0  0
   13.7057  -17.0263    0.0000 As   0  0  0  0  0  0  0  0  0  0  0  0
   12.3898  -16.5464    0.0000 C    0  0  0  0  0  0  0  0  0  0  0  0
   12.1355  -15.1543    0.0000 C    0  0  0  0  0  0  0  0  0  0  0  0
   11.3081  -17.4587    0.0000 C    0  0  0  0  0  0  0  0  0  0  0  0
   10.8095  -14.6750    0.0000 C    0  0  0  0  0  0  0  0  0  0  0  0
    9.9821  -16.9793    0.0000 C    0  0  0  0  0  0  0  0  0  0  0  0
    9.7278  -15.5873    0.0000 C    0  0  0  0  0  0  0  0  0  0  0  0
   13.9504  -18.4087    0.0000 C    0  0  0  0  0  0  0  0  0  0  0  0
   12.8782  -19.3210    0.0000 C    0  0  0  0  0  0  0  0  0  0  0  0
   15.2764  -18.8886    0.0000 C    0  0  0  0  0  0  0  0  0  0  0  0
   13.1229  -20.7131    0.0000 C    0  0  0  0  0  0  0  0  0  0  0  0
   15.5307  -20.2801    0.0000 C    0  0  0  0  0  0  0  0  0  0  0  0
   14.4489  -21.1924    0.0000 C    0  0  0  0  0  0  0  0  0  0  0  0
   15.6059  -13.8097    0.0000 P    0  0  0  0  0  0  0  0  0  0  0  0
   17.9102  -14.6372    0.0000 C    0  0  0  0  0  0  0  0  0  0  0  0
   16.5181  -14.8910    0.0000 C    0  0  0  0  0  0  0  0  0  0  0  0
   18.8224  -15.7190    0.0000 C    0  0  0  0  0  0  0  0  0  0  0  0
   16.0382  -16.2175    0.0000 C    0  0  0  0  0  0  0  0  0  0  0  0
   18.3426  -17.0449    0.0000 C    0  0  0  0  0  0  0  0  0  0  0  0
   16.9505  -17.2987    0.0000 C    0  0  0  0  0  0  0  0  0  0  0  0
   18.8411  -11.0922    0.0000 C    0  0  0  0  0  0  0  0  0  0  0  0
   17.5151  -10.6124    0.0000 C    0  0  0  0  0  0  0  0  0  0  0  0
   19.0948  -12.4837    0.0000 C    0  0  0  0  0  0  0  0  0  0  0  0
   16.4333  -11.5246    0.0000 C    0  0  0  0  0  0  0  0  0  0  0  0
   18.0136  -13.3768    0.0000 C    0  0  0  0  0  0  0  0  0  0  0  0
   16.6871  -12.9065    0.0000 C    0  0  0  0  0  0  0  0  0  0  0  0
  1  2  2  0  0  0  0
  1  3  2  0  0  0  0
  1  4  2  0  0  0  0
  1  5  1  0  0  0  0
  7  8  1  0  0  0  0
  7  9  1  0  0  0  0
 10 11  1  0  0  0  0
 10 12  2  0  0  0  0
 11 13  2  0  0  0  0
 12 14  1  0  0  0  0
 13 15  1  0  0  0  0
 14 15  2  0  0  0  0
  9 10  1  0  0  0  0
 16 17  1  0  0  0  0
 16 18  2  0  0  0  0
 17 19  2  0  0  0  0
 18 20  1  0  0  0  0
 19 21  1  0  0  0  0
 20 21  2  0  0  0  0
  9 16  1  0  0  0  0
  8 22  1  0  0  0  0
 23 24  1  0  0  0  0
 23 25  2  0  0  0  0
 24 26  2  0  0  0  0
 25 27  1  0  0  0  0
 26 28  1  0  0  0  0
 27 28  2  0  0  0  0
 22 24  1  0  0  0  0
 29 30  1  0  0  0  0
 29 31  2  0  0  0  0
 30 32  2  0  0  0  0
 31 33  1  0  0  0  0
 32 34  1  0  0  0  0
 33 34  2  0  0  0  0
 22 34  1  0  0  0  0
  6 22  1  0  0  0  0
 35 36  1  0  0  0  0
 35 37  1  0  0  0  0
 38 39  1  0  0  0  0
 38 40  2  0  0  0  0
 39 41  2  0  0  0  0
 40 42  1  0  0  0  0
 41 43  1  0  0  0  0
 42 43  2  0  0  0  0
 37 38  1  0  0  0  0
 44 45  1  0  0  0  0
 44 46  2  0  0  0  0
 45 47  2  0  0  0  0
 46 48  1  0  0  0  0
 47 49  1  0  0  0  0
 48 49  2  0  0  0  0
 37 44  1  0  0  0  0
 36 50  1  0  0  0  0
 51 52  1  0  0  0  0
 51 53  2  0  0  0  0
 52 54  2  0  0  0  0
 53 55  1  0  0  0  0
 54 56  1  0  0  0  0
 55 56  2  0  0  0  0
 50 52  1  0  0  0  0
 57 58  1  0  0  0  0
 57 59  2  0  0  0  0
 58 60  2  0  0  0  0
 59 61  1  0  0  0  0
 60 62  1  0  0  0  0
 61 62  2  0  0  0  0
 50 62  1  0  0  0  0
  6 50  1  0  0  0  0
M  END
> <NMREDATA_VERSION>
1.1

> <NMREDATA_LEVEL>
0

> <NMREDATA_SOLVENT>
CD2Cl2

> <NMREDATA_TEMPERATURE>
298

> <NMREDATA_FORMULA>
C52H51As2ClO4P2Rh

> <NMREDATA_SMILES>
c1ccc(cc1)P(c1ccccc1)([Rh]P(c1ccccc1)(c1ccccc1)CC[As](c1ccccc1)c1ccccc1)CC[As](c1ccccc1)c1ccccc1.O[Cl](=O)(=O)=O

> <NMREDATA_ASSIGNMENT>
Rh6, 1199.00, 6

> <NMREDATA_1D_103Rh>
1199.00, L=Rh6

$$$$
