
  ACD/LABS04042409592D

 19 18  0  0  0  0  0  0  0  0  2 V2000
   17.6746  -11.1528    0.0000 Rh   0  7  0  0  0  0  0  0  0  0  0  0
   19.0046  -11.1528    0.0000 S    0  0  0  0  0  0  0  0  0  0  0  0
   19.6696  -10.0010    0.0000 C    0  0  0  0  0  0  0  0  0  0  0  0
   20.3346   -8.8491    0.0000 N    0  0  0  0  0  0  0  0  0  0  0  0
   17.0096  -10.0010    0.0000 S    0  0  0  0  0  0  0  0  0  0  0  0
   15.6796  -10.0010    0.0000 C    0  0  0  0  0  0  0  0  0  0  0  0
   14.3496  -10.0010    0.0000 N    0  0  0  0  0  0  0  0  0  0  0  0
   17.0096  -12.3046    0.0000 S    0  0  0  0  0  0  0  0  0  0  0  0
   17.6746  -13.4564    0.0000 C    0  0  0  0  0  0  0  0  0  0  0  0
   18.3396  -14.6082    0.0000 N    0  0  0  0  0  0  0  0  0  0  0  0
   18.3396  -10.0010    0.0000 S    0  0  0  0  0  0  0  0  0  0  0  0
   17.6746   -8.8491    0.0000 C    0  0  0  0  0  0  0  0  0  0  0  0
   17.0096   -7.6973    0.0000 N    0  0  0  0  0  0  0  0  0  0  0  0
   18.3396  -12.3046    0.0000 S    0  0  0  0  0  0  0  0  0  0  0  0
   19.6696  -12.3046    0.0000 C    0  0  0  0  0  0  0  0  0  0  0  0
   20.9996  -12.3046    0.0000 N    0  0  0  0  0  0  0  0  0  0  0  0
   16.3446  -11.1528    0.0000 S    0  0  0  0  0  0  0  0  0  0  0  0
   15.6796  -12.3046    0.0000 C    0  0  0  0  0  0  0  0  0  0  0  0
   15.0146  -13.4564    0.0000 N    0  0  0  0  0  0  0  0  0  0  0  0
  2  3  1  0  0  0  0
  3  4  3  0  0  0  0
  1  2  1  0  0  0  0
  5  6  1  0  0  0  0
  6  7  3  0  0  0  0
  1  5  1  0  0  0  0
  8  9  1  0  0  0  0
  9 10  3  0  0  0  0
  1  8  1  0  0  0  0
 11 12  1  0  0  0  0
 12 13  3  0  0  0  0
  1 11  1  0  0  0  0
 14 15  1  0  0  0  0
 15 16  3  0  0  0  0
  1 14  1  0  0  0  0
 17 18  1  0  0  0  0
 18 19  3  0  0  0  0
  1 17  1  0  0  0  0
M  END
> <NMREDATA_VERSION>
1.1

> <NMREDATA_LEVEL>
0

> <NMREDATA_SOLVENT>
CD2Cl2

> <NMREDATA_TEMPERATURE>
243

> <NMREDATA_FORMULA>
C6N6RhS6

> <NMREDATA_SMILES>
N#CS[Rh](SC#N)(SC#N)(SC#N)(SC#N)SC#N

> <NMREDATA_ASSIGNMENT>
Rh1, 2791.00, 1

> <NMREDATA_1D_103Rh>
2791.00, L=Rh1

$$$$
