
  ACD/LABS04022410072D

 61 69  0  0  0  0  0  0  0  0  1 V2000
   23.6268  -11.0088    0.0000 C    0  0  0  0  0  0  0  0  0  0  0  0
   23.8538  -12.3174    0.0000 C    0  0  0  0  0  0  0  0  0  0  0  0
   22.3747  -10.5520    0.0000 C    0  0  0  0  0  0  0  0  0  0  0  0
   22.8372  -13.1741    0.0000 C    0  0  0  0  0  0  0  0  0  0  0  0
   21.3581  -11.4087    0.0000 C    0  0  0  0  0  0  0  0  0  0  0  0
   21.5855  -12.7175    0.0000 C    0  0  0  0  0  0  0  0  0  0  0  0
   18.3053   -7.9364    0.0000 C    0  0  0  0  0  0  0  0  0  0  0  0
   19.3185   -8.7875    0.0000 C    0  0  0  0  0  0  0  0  0  0  0  0
   17.0581   -8.3939    0.0000 C    0  0  0  0  0  0  0  0  0  0  0  0
   19.0852  -10.0965    0.0000 C    0  0  0  0  0  0  0  0  0  0  0  0
   16.8248   -9.7028    0.0000 C    0  0  0  0  0  0  0  0  0  0  0  0
   17.8380  -10.5539    0.0000 C    0  0  0  0  0  0  0  0  0  0  0  0
   22.7717   -8.6412    0.0000 C    0  0  0  0  0  0  0  0  0  0  0  0
   22.1059   -7.4891    0.0000 C    0  0  0  0  0  0  0  0  0  0  0  0
   22.1065   -9.7933    0.0000 C    0  0  0  0  0  0  0  0  0  0  0  0
   20.7752   -7.4884    0.0000 C    0  0  0  0  0  0  0  0  0  0  0  0
   20.7759   -9.7927    0.0000 C    0  0  0  0  0  0  0  0  0  0  0  0
   20.1100   -8.6406    0.0000 C    0  0  0  0  0  0  0  0  0  0  0  0
    9.9450  -12.6624    0.0000 C    0  0  0  0  0  0  0  0  0  0  0  0
    9.4923  -11.4077    0.0000 C    0  0  0  0  0  0  0  0  0  0  0  0
   11.2588  -12.8882    0.0000 C    0  0  0  0  0  0  0  0  0  0  0  0
   10.3359  -10.3897    0.0000 C    0  0  0  0  0  0  0  0  0  0  0  0
   12.1068  -11.8625    0.0000 C    0  0  0  0  0  0  0  0  0  0  0  0
   11.6493  -10.6153    0.0000 C    0  0  0  0  0  0  0  0  0  0  0  0
   12.6278   -9.9311    0.0000 C    0  0  0  0  0  0  0  0  0  0  0  0
   12.8491   -8.6259    0.0000 C    0  0  0  0  0  0  0  0  0  0  0  0
   13.6494  -10.7870    0.0000 C    0  0  0  0  0  0  0  0  0  0  0  0
   14.1039   -8.1729    0.0000 C    0  0  0  0  0  0  0  0  0  0  0  0
   14.8916  -10.3374    0.0000 C    0  0  0  0  0  0  0  0  0  0  0  0
   15.1175   -9.0242    0.0000 C    0  0  0  0  0  0  0  0  0  0  0  0
   14.2156  -14.2575    0.0000 C    0  0  0  0  0  0  0  0  0  0  0  0
   13.9820  -15.5663    0.0000 C    0  0  0  0  0  0  0  0  0  0  0  0
   13.1896  -13.4093    0.0000 C    0  0  0  0  0  0  0  0  0  0  0  0
   12.7349  -16.0238    0.0000 C    0  0  0  0  0  0  0  0  0  0  0  0
   11.9428  -13.8670    0.0000 C    0  0  0  0  0  0  0  0  0  0  0  0
   11.7092  -15.1757    0.0000 C    0  0  0  0  0  0  0  0  0  0  0  0
   17.1447  -15.6211    0.0000 C    0  0  0  0  0  0  0  0  0  0  0  0
   15.8312  -15.3950    0.0000 C    0  0  0  0  0  0  0  0  0  0  0  0
   17.6022  -16.8683    0.0000 C    0  0  0  0  0  0  0  0  0  0  0  0
   14.9875  -16.4130    0.0000 C    0  0  0  0  0  0  0  0  0  0  0  0
   16.7538  -17.8937    0.0000 C    0  0  0  0  0  0  0  0  0  0  0  0
   15.4406  -17.6678    0.0000 C    0  0  0  0  0  0  0  0  0  0  0  0
   15.7278  -14.2090    0.0000 C    0  0  0  0  0  0  0  0  0  0  0  0
   16.9750  -13.7515    0.0000 C    0  0  0  0  0  0  0  0  0  0  0  0
   14.7146  -13.3579    0.0000 C    0  0  0  0  0  0  0  0  0  0  0  0
   17.2082  -12.4425    0.0000 C    0  0  0  0  0  0  0  0  0  0  0  0
   14.9479  -12.0489    0.0000 C    0  0  0  0  0  0  0  0  0  0  0  0
   16.1950  -11.5914    0.0000 C    0  0  0  0  0  0  0  0  0  0  0  0
   21.2900  -15.8539    0.0000 C    0  0  0  0  0  0  0  0  0  0  0  0
   20.2688  -14.9981    0.0000 C    0  0  0  0  0  0  0  0  0  0  0  0
   21.0564  -17.1626    0.0000 C    0  0  0  0  0  0  0  0  0  0  0  0
   19.0217  -15.4556    0.0000 C    0  0  0  0  0  0  0  0  0  0  0  0
   19.8096  -17.6203    0.0000 C    0  0  0  0  0  0  0  0  0  0  0  0
   18.7880  -16.7644    0.0000 C    0  0  0  0  0  0  0  0  0  0  0  0
   19.4457  -12.0967    0.0000 Rh   0  0  0  0  0  0  0  0  0  0  0  0
   20.7765  -12.0969    0.0000 Cl   0  0  0  0  0  0  0  0  0  0  0  0
   18.7800  -10.9442    0.0000 Cl   0  0  0  0  0  0  0  0  0  0  0  0
   20.1115  -13.2488    0.0000 Cl   0  0  0  0  0  0  0  0  0  0  0  0
   20.1107  -10.9449    0.0000 P    0  0  0  0  0  0  0  0  0  0  0  0
   13.4156  -12.0961    0.0000 P    0  0  0  0  0  0  0  0  0  0  0  0
   18.0006  -14.5995    0.0000 P    0  0  0  0  0  0  0  0  0  0  0  0
  1  2  1  0  0  0  0
  1  3  2  0  0  0  0
  2  4  2  0  0  0  0
  3  5  1  0  0  0  0
  4  6  1  0  0  0  0
  5  6  2  0  0  0  0
  7  8  1  0  0  0  0
  7  9  2  0  0  0  0
  8 10  2  0  0  0  0
  9 11  1  0  0  0  0
 10 12  1  0  0  0  0
 11 12  2  0  0  0  0
 13 14  1  0  0  0  0
 13 15  2  0  0  0  0
 14 16  2  0  0  0  0
 15 17  1  0  0  0  0
 16 18  1  0  0  0  0
 17 18  2  0  0  0  0
 19 20  1  0  0  0  0
 19 21  2  0  0  0  0
 20 22  2  0  0  0  0
 21 23  1  0  0  0  0
 22 24  1  0  0  0  0
 23 24  2  0  0  0  0
 25 26  1  0  0  0  0
 25 27  2  0  0  0  0
 26 28  2  0  0  0  0
 27 29  1  0  0  0  0
 28 30  1  0  0  0  0
 29 30  2  0  0  0  0
 31 32  1  0  0  0  0
 31 33  2  0  0  0  0
 32 34  2  0  0  0  0
 33 35  1  0  0  0  0
 34 36  1  0  0  0  0
 35 36  2  0  0  0  0
 37 38  1  0  0  0  0
 37 39  2  0  0  0  0
 38 40  2  0  0  0  0
 39 41  1  0  0  0  0
 40 42  1  0  0  0  0
 41 42  2  0  0  0  0
 43 44  1  0  0  0  0
 43 45  2  0  0  0  0
 44 46  2  0  0  0  0
 45 47  1  0  0  0  0
 46 48  1  0  0  0  0
 47 48  2  0  0  0  0
 49 50  1  0  0  0  0
 49 51  2  0  0  0  0
 50 52  2  0  0  0  0
 51 53  1  0  0  0  0
 52 54  1  0  0  0  0
 53 54  2  0  0  0  0
 55 56  1  0  0  0  0
 55 57  1  0  0  0  0
 55 58  1  0  0  0  0
 55 59  1  0  0  0  0
 55 60  1  0  0  0  0
 55 61  1  0  0  0  0
 52 61  1  0  0  0  0
 44 61  1  0  0  0  0
 37 61  1  0  0  0  0
 33 60  1  0  0  0  0
 27 60  1  0  0  0  0
 23 60  1  0  0  0  0
 17 59  1  0  0  0  0
 10 59  1  0  0  0  0
  5 59  1  0  0  0  0
M  END
> <NMREDATA_VERSION>
1.1

> <NMREDATA_LEVEL>
0

> <NMREDATA_SOLVENT>
CD2Cl2

> <NMREDATA_TEMPERATURE>
305

> <NMREDATA_FORMULA>
C54H48Cl3P3Rh

> <NMREDATA_SMILES>
Cl[Rh](P(c1ccccc1)(c1ccccc1)c1ccccc1)(P(c1ccccc1)(c1ccccc1)c1ccccc1)(P(c1ccccc1)(c1ccccc1)c1ccccc1)(Cl)Cl

> <NMREDATA_ASSIGNMENT>
Rh55, 2770.00, 55

> <NMREDATA_1D_103Rh>
2770.00, L=Rh55

$$$$
