
  ACD/LABS03242411432D

 23 22  0  0  0  0  0  0  0  0  1 V2000
   18.5919   -6.9431    0.0000 C    0  0  0  0  0  0  0  0  0  0  0  0
   11.7771  -12.4390    0.0000 O    0  0  0  0  0  0  0  0  0  0  0  0
   12.2287  -11.1911    0.0000 N    0  0  0  0  0  0  0  0  0  0  0  0
   13.5384  -10.9607    0.0000 C    0  0  0  0  0  0  0  0  0  0  0  0
   14.3882  -11.9787    0.0000 C    0  0  0  0  0  0  0  0  0  0  0  0
   13.9988   -9.7219    0.0000 C    0  0  0  0  0  0  0  0  0  0  0  0
   13.1403   -8.6952    0.0000 C    0  0  0  0  0  0  0  0  0  0  0  0
   15.2997   -9.4916    0.0000 N    0  0  0  0  0  0  0  0  0  0  0  0
   15.7601   -8.2528    0.0000 O    0  0  0  0  0  0  0  0  0  0  0  0
   19.4325  -14.4921    0.0000 O    0  0  0  0  0  0  0  0  0  0  0  0
   18.4062  -13.6427    0.0000 N    0  0  0  0  0  0  0  0  0  0  0  0
   18.6362  -12.3326    0.0000 C    0  0  0  0  0  0  0  0  0  0  0  0
   19.8841  -11.8726    0.0000 C    0  0  0  0  0  0  0  0  0  0  0  0
   17.6182  -11.4832    0.0000 C    0  0  0  0  0  0  0  0  0  0  0  0
   16.3795  -11.9344    0.0000 C    0  0  0  0  0  0  0  0  0  0  0  0
   17.8486  -10.1731    0.0000 N    0  0  0  0  0  0  0  0  0  0  0  0
   16.8307   -9.3234    0.0000 O    0  0  0  0  0  0  0  0  0  0  0  0
   17.0606   -8.0228    0.0000 Rh   0  0  0  0  0  0  0  0  0  0  0  0
   18.3619   -8.2528    0.0000 C    0  0  0  0  0  0  0  0  0  0  0  0
   18.8219   -9.4916    0.0000 Cl   0  0  0  0  0  0  0  0  0  0  0  0
   17.2819   -6.7131    0.0000 P    0  0  0  0  0  0  0  0  0  0  0  0
   17.5122   -5.4118    0.0000 C    0  0  0  0  0  0  0  0  0  0  0  0
   15.9900   -6.4919    0.0000 C    0  0  0  0  0  0  0  0  0  0  0  0
  2  3  1  0  0  0  0
  3  4  2  0  0  0  0
  4  5  1  0  0  0  0
  4  6  1  0  0  0  0
  6  7  1  0  0  0  0
  6  8  2  0  0  0  0
  8  9  1  0  0  0  0
 10 11  1  0  0  0  0
 11 12  2  0  0  0  0
 12 13  1  0  0  0  0
 12 14  1  0  0  0  0
 14 15  1  0  0  0  0
 14 16  2  0  0  0  0
 16 17  1  0  0  0  0
 17 18  1  0  0  0  0
 18 19  1  0  0  0  0
  9 18  1  0  0  0  0
 19 20  1  0  0  0  0
 18 21  1  0  0  0  0
 21 22  1  0  0  0  0
 21 23  1  0  0  0  0
  1 21  1  0  0  0  0
M  END
> <NMREDATA_VERSION>
1.1

> <NMREDATA_LEVEL>
0

> <NMREDATA_SOLVENT>
DCCl3

> <NMREDATA_TEMPERATURE>
298

> <NMREDATA_FORMULA>
C12H26ClN4O4PRh

> <NMREDATA_SMILES>
ClC[Rh](P(C)(C)C)(O/N=C(/C(=N/O)/C)\C)O/N=C(/C(=N/O)/C)\C

> <NMREDATA_ASSIGNMENT>
Rh18, 1948.00, 18

> <NMREDATA_1D_103Rh>
1948.00, L=Rh18

$$$$
