
  ACD/LABS03292412492D

 58 65  0  0  0  0  0  0  0  0  1 V2000
   22.4307  -13.1013    0.0000 C    0  0  0  0  0  0  0  0  0  0  0  0
   23.6784  -12.6370    0.0000 C    0  0  0  0  0  0  0  0  0  0  0  0
   22.2034  -14.4103    0.0000 C    0  0  0  0  0  0  0  0  0  0  0  0
   24.6953  -13.4935    0.0000 C    0  0  0  0  0  0  0  0  0  0  0  0
   23.2203  -15.2668    0.0000 C    0  0  0  0  0  0  0  0  0  0  0  0
   24.4680  -14.8025    0.0000 C    0  0  0  0  0  0  0  0  0  0  0  0
   14.7560  -19.2835    0.0000 C    0  0  0  0  0  0  0  0  0  0  0  0
   14.3028  -20.5384    0.0000 C    0  0  0  0  0  0  0  0  0  0  0  0
   16.0696  -19.0573    0.0000 C    0  0  0  0  0  0  0  0  0  0  0  0
   15.1467  -21.5567    0.0000 C    0  0  0  0  0  0  0  0  0  0  0  0
   16.9180  -20.0832    0.0000 C    0  0  0  0  0  0  0  0  0  0  0  0
   16.4603  -21.3305    0.0000 C    0  0  0  0  0  0  0  0  0  0  0  0
   19.7034  -21.6085    0.0000 C    0  0  0  0  0  0  0  0  0  0  0  0
   19.9289  -22.9219    0.0000 C    0  0  0  0  0  0  0  0  0  0  0  0
   18.4608  -21.1590    0.0000 C    0  0  0  0  0  0  0  0  0  0  0  0
   18.9156  -23.7733    0.0000 C    0  0  0  0  0  0  0  0  0  0  0  0
   17.4391  -22.0147    0.0000 C    0  0  0  0  0  0  0  0  0  0  0  0
   17.6602  -23.3204    0.0000 C    0  0  0  0  0  0  0  0  0  0  0  0
   19.0271  -17.6877    0.0000 C    0  0  0  0  0  0  0  0  0  0  0  0
   18.7938  -16.3788    0.0000 C    0  0  0  0  0  0  0  0  0  0  0  0
   18.0011  -18.5361    0.0000 C    0  0  0  0  0  0  0  0  0  0  0  0
   17.5465  -15.9211    0.0000 C    0  0  0  0  0  0  0  0  0  0  0  0
   16.7539  -18.0785    0.0000 C    0  0  0  0  0  0  0  0  0  0  0  0
   16.5206  -16.7695    0.0000 C    0  0  0  0  0  0  0  0  0  0  0  0
   22.6271  -19.0813    0.0000 Rh   0  0  0  0  0  0  0  0  0  0  0  0
   21.9643  -20.2213    0.0000 H    0  0  0  0  0  0  0  0  0  0  0  0
   23.9458  -19.0773    0.0000 H    0  0  0  0  0  0  0  0  0  0  0  0
   18.2273  -19.8497    0.0000 P    0  0  0  0  0  0  0  0  0  0  0  0
   21.9619  -17.9290    0.0000 C    0  0  0  0  0  0  0  0  0  0  0  0
   22.6200  -16.7808    0.0000 C    0  0  0  0  0  0  0  0  0  0  0  0
   20.6385  -17.9249    0.0000 C    0  0  0  0  0  0  0  0  0  0  0  0
   21.9549  -15.6290    0.0000 C    0  0  0  0  0  0  0  0  0  0  0  0
   19.9734  -16.7730    0.0000 C    0  0  0  0  0  0  0  0  0  0  0  0
   20.6316  -15.6248    0.0000 N    0  0  0  0  0  0  0  0  0  0  0  0
   25.4925  -15.6551    0.0000 P    0  0  0  0  0  0  0  0  0  0  0  0
   26.5097  -16.5120    0.0000 C    0  0  0  0  0  0  0  0  0  0  0  0
   27.7616  -16.0550    0.0000 C    0  0  0  0  0  0  0  0  0  0  0  0
   26.2777  -17.8129    0.0000 C    0  0  0  0  0  0  0  0  0  0  0  0
   28.7818  -16.8993    0.0000 C    0  0  0  0  0  0  0  0  0  0  0  0
   27.3023  -18.6649    0.0000 C    0  0  0  0  0  0  0  0  0  0  0  0
   28.5463  -18.2130    0.0000 C    0  0  0  0  0  0  0  0  0  0  0  0
   26.3494  -14.6380    0.0000 C    0  0  0  0  0  0  0  0  0  0  0  0
   25.8851  -13.3903    0.0000 C    0  0  0  0  0  0  0  0  0  0  0  0
   27.6584  -14.8652    0.0000 C    0  0  0  0  0  0  0  0  0  0  0  0
   26.7378  -12.3658    0.0000 C    0  0  0  0  0  0  0  0  0  0  0  0
   28.5111  -13.8408    0.0000 C    0  0  0  0  0  0  0  0  0  0  0  0
   28.0512  -12.6008    0.0000 C    0  0  0  0  0  0  0  0  0  0  0  0
   23.2946  -22.5254    0.0000 S    0  0  0  0  0  0  0  0  0  0  0  0
   24.6180  -22.5296    0.0000 S    0  0  0  0  0  0  0  0  0  0  0  0
   22.6293  -21.3731    0.0000 S    0  0  0  0  0  0  0  0  0  0  0  0
   25.2761  -21.3814    0.0000 S    0  0  0  0  0  0  0  0  0  0  0  0
   23.2874  -20.2250    0.0000 S    0  0  0  0  0  0  0  0  0  0  0  0
   24.6108  -20.2291    0.0000 S    0  0  0  0  0  0  0  0  0  0  0  0
   25.2767  -19.0765    0.0000 F    0  0  0  0  0  0  0  0  0  0  0  0
   26.6072  -21.3811    0.0000 F    0  0  0  0  0  0  0  0  0  0  0  0
   25.2830  -23.6814    0.0000 F    0  0  0  0  0  0  0  0  0  0  0  0
   22.6288  -23.6780    0.0000 F    0  0  0  0  0  0  0  0  0  0  0  0
   21.2982  -21.3735    0.0000 F    0  0  0  0  0  0  0  0  0  0  0  0
  1  2  1  0  0  0  0
  1  3  2  0  0  0  0
  2  4  2  0  0  0  0
  3  5  1  0  0  0  0
  4  6  1  0  0  0  0
  5  6  2  0  0  0  0
  7  8  2  0  0  0  0
  7  9  1  0  0  0  0
  8 10  1  0  0  0  0
  9 11  2  0  0  0  0
 10 12  2  0  0  0  0
 11 12  1  0  0  0  0
 13 14  2  0  0  0  0
 13 15  1  0  0  0  0
 14 16  1  0  0  0  0
 15 17  2  0  0  0  0
 16 18  2  0  0  0  0
 17 18  1  0  0  0  0
 19 20  2  0  0  0  0
 19 21  1  0  0  0  0
 20 22  1  0  0  0  0
 21 23  2  0  0  0  0
 22 24  2  0  0  0  0
 23 24  1  0  0  0  0
 25 26  1  0  0  0  0
 25 27  1  0  0  0  0
 25 28  1  0  0  0  0
 21 28  1  0  0  0  0
 15 28  1  0  0  0  0
 11 28  1  0  0  0  0
 29 30  1  0  0  0  0
 29 31  2  0  0  0  0
 30 32  2  0  0  0  0
 31 33  1  0  0  0  0
 32 34  1  0  0  0  0
 33 34  2  0  0  0  0
 25 29  1  0  0  0  0
 25 35  1  0  0  0  0
 36 37  1  0  0  0  0
 36 38  2  0  0  0  0
 37 39  2  0  0  0  0
 38 40  1  0  0  0  0
 39 41  1  0  0  0  0
 40 41  2  0  0  0  0
 35 36  1  0  0  0  0
 42 43  1  0  0  0  0
 42 44  2  0  0  0  0
 43 45  2  0  0  0  0
 44 46  1  0  0  0  0
 45 47  1  0  0  0  0
 46 47  2  0  0  0  0
 35 42  1  0  0  0  0
  6 35  1  0  0  0  0
 48 49  1  0  0  0  0
 48 50  2  0  0  0  0
 49 51  2  0  0  0  0
 50 52  1  0  0  0  0
 51 53  1  0  0  0  0
 52 53  2  0  0  0  0
 53 54  1  0  0  0  0
 51 55  1  0  0  0  0
 49 56  1  0  0  0  0
 48 57  1  0  0  0  0
 50 58  1  0  0  0  0
 25 52  1  0  0  0  0
M  END
> <NMREDATA_VERSION>
1.1

> <NMREDATA_LEVEL>
0

> <NMREDATA_SOLVENT>
toluene-d8

> <NMREDATA_TEMPERATURE>
248

> <NMREDATA_FORMULA>
C41H38F5NP2RhS6

> <NMREDATA_SMILES>
FS1=S(F)S(=S(S(=S1[RhH2](P(c1ccccc1)(c1ccccc1)c1ccccc1)(P(c1ccccc1)(c1ccccc1)c1ccccc1)c1ccncc1)F)F)F

> <NMREDATA_ASSIGNMENT>
Rh25, 273.00, 25

> <NMREDATA_1D_103Rh>
273.00, L=Rh25

$$$$
