
  ACD/LABS03292412452D

 54 61  0  0  0  0  0  0  0  0  1 V2000
   17.0900  -12.8144    0.0000 C    0  0  0  0  0  0  0  0  0  0  0  0
   17.3384  -14.1182    0.0000 C    0  0  0  0  0  0  0  0  0  0  0  0
   18.1011  -11.9453    0.0000 C    0  0  0  0  0  0  0  0  0  0  0  0
   18.5980  -14.5437    0.0000 C    0  0  0  0  0  0  0  0  0  0  0  0
   19.3607  -12.3801    0.0000 C    0  0  0  0  0  0  0  0  0  0  0  0
   19.6088  -13.6839    0.0000 C    0  0  0  0  0  0  0  0  0  0  0  0
   20.9304   -9.6750    0.0000 C    0  0  0  0  0  0  0  0  0  0  0  0
   19.6709   -9.2406    0.0000 C    0  0  0  0  0  0  0  0  0  0  0  0
   21.1874  -10.9788    0.0000 C    0  0  0  0  0  0  0  0  0  0  0  0
   18.6686  -10.1186    0.0000 C    0  0  0  0  0  0  0  0  0  0  0  0
   20.1766  -11.8568    0.0000 C    0  0  0  0  0  0  0  0  0  0  0  0
   18.9260  -11.4221    0.0000 C    0  0  0  0  0  0  0  0  0  0  0  0
   17.3473  -14.9427    0.0000 C    0  0  0  0  0  0  0  0  0  0  0  0
   16.2120  -15.6255    0.0000 C    0  0  0  0  0  0  0  0  0  0  0  0
   18.5091  -15.5902    0.0000 C    0  0  0  0  0  0  0  0  0  0  0  0
   16.2298  -16.9561    0.0000 C    0  0  0  0  0  0  0  0  0  0  0  0
   18.5359  -16.9204    0.0000 C    0  0  0  0  0  0  0  0  0  0  0  0
   17.3916  -17.6032    0.0000 C    0  0  0  0  0  0  0  0  0  0  0  0
   24.9565  -14.3577    0.0000 C    0  0  0  0  0  0  0  0  0  0  0  0
   26.1982  -13.8788    0.0000 C    0  0  0  0  0  0  0  0  0  0  0  0
   23.9189  -13.5240    0.0000 C    0  0  0  0  0  0  0  0  0  0  0  0
   26.4020  -12.5664    0.0000 C    0  0  0  0  0  0  0  0  0  0  0  0
   24.1227  -12.2116    0.0000 C    0  0  0  0  0  0  0  0  0  0  0  0
   25.3644  -11.7326    0.0000 C    0  0  0  0  0  0  0  0  0  0  0  0
   21.7017  -15.7940    0.0000 Rh   0  0  0  0  0  0  0  0  0  0  0  0
   21.0546  -16.9561    0.0000 H    0  0  0  0  0  0  0  0  0  0  0  0
   23.0052  -16.0071    0.0000 H    0  0  0  0  0  0  0  0  0  0  0  0
   21.2231  -14.5526    0.0000 P    0  0  0  0  0  0  0  0  0  0  0  0
   22.1629  -17.0357    0.0000 C    0  0  0  0  0  0  0  0  0  0  0  0
   21.1699  -17.9137    0.0000 C    0  0  0  0  0  0  0  0  0  0  0  0
   23.4221  -17.4704    0.0000 C    0  0  0  0  0  0  0  0  0  0  0  0
   21.4269  -19.2176    0.0000 C    0  0  0  0  0  0  0  0  0  0  0  0
   23.6794  -18.7739    0.0000 C    0  0  0  0  0  0  0  0  0  0  0  0
   22.6772  -19.6519    0.0000 N    0  0  0  0  0  0  0  0  0  0  0  0
   22.3313  -14.6322    0.0000 P    0  0  0  0  0  0  0  0  0  0  0  0
   24.8676  -16.0424    0.0000 C    0  0  0  0  0  0  0  0  0  0  0  0
   26.0119  -15.3596    0.0000 C    0  0  0  0  0  0  0  0  0  0  0  0
   24.8944  -17.3726    0.0000 C    0  0  0  0  0  0  0  0  0  0  0  0
   27.1737  -16.0071    0.0000 C    0  0  0  0  0  0  0  0  0  0  0  0
   26.0562  -18.0201    0.0000 C    0  0  0  0  0  0  0  0  0  0  0  0
   27.1915  -17.3373    0.0000 C    0  0  0  0  0  0  0  0  0  0  0  0
   23.2890  -11.9011    0.0000 C    0  0  0  0  0  0  0  0  0  0  0  0
   24.5307  -11.4310    0.0000 C    0  0  0  0  0  0  0  0  0  0  0  0
   22.2603  -11.0587    0.0000 C    0  0  0  0  0  0  0  0  0  0  0  0
   24.7434  -10.1186    0.0000 C    0  0  0  0  0  0  0  0  0  0  0  0
   22.4731   -9.7460    0.0000 C    0  0  0  0  0  0  0  0  0  0  0  0
   23.7148   -9.2759    0.0000 C    0  0  0  0  0  0  0  0  0  0  0  0
   20.3893  -16.0424    0.0000 S    0  0  0  0  0  0  0  0  0  0  0  0
   19.9502  -17.2976    0.0000 C    0  0  0  0  0  0  0  0  0  0  0  0
   20.8177  -18.3056    0.0000 C    0  0  0  0  0  0  0  0  0  0  0  0
   18.6435  -17.5450    0.0000 C    0  0  0  0  0  0  0  0  0  0  0  0
   20.3785  -19.5609    0.0000 C    0  0  0  0  0  0  0  0  0  0  0  0
   18.2044  -18.8002    0.0000 C    0  0  0  0  0  0  0  0  0  0  0  0
   19.0719  -19.8081    0.0000 C    0  0  0  0  0  0  0  0  0  0  0  0
  1  2  1  0  0  0  0
  1  3  2  0  0  0  0
  2  4  2  0  0  0  0
  3  5  1  0  0  0  0
  4  6  1  0  0  0  0
  5  6  2  0  0  0  0
  7  8  2  0  0  0  0
  7  9  1  0  0  0  0
  8 10  1  0  0  0  0
  9 11  2  0  0  0  0
 10 12  2  0  0  0  0
 11 12  1  0  0  0  0
 13 14  2  0  0  0  0
 13 15  1  0  0  0  0
 14 16  1  0  0  0  0
 15 17  2  0  0  0  0
 16 18  2  0  0  0  0
 17 18  1  0  0  0  0
 19 20  2  0  0  0  0
 19 21  1  0  0  0  0
 20 22  1  0  0  0  0
 21 23  2  0  0  0  0
 22 24  2  0  0  0  0
 23 24  1  0  0  0  0
 25 26  1  0  0  0  0
 25 27  1  0  0  0  0
 25 28  1  0  0  0  0
 21 28  1  0  0  0  0
 15 28  1  0  0  0  0
 11 28  1  0  0  0  0
 29 30  1  0  0  0  0
 29 31  2  0  0  0  0
 30 32  2  0  0  0  0
 31 33  1  0  0  0  0
 32 34  1  0  0  0  0
 33 34  2  0  0  0  0
 25 29  1  0  0  0  0
 25 35  1  0  0  0  0
 36 37  1  0  0  0  0
 36 38  2  0  0  0  0
 37 39  2  0  0  0  0
 38 40  1  0  0  0  0
 39 41  1  0  0  0  0
 40 41  2  0  0  0  0
 35 36  1  0  0  0  0
 42 43  1  0  0  0  0
 42 44  2  0  0  0  0
 43 45  2  0  0  0  0
 44 46  1  0  0  0  0
 45 47  1  0  0  0  0
 46 47  2  0  0  0  0
 35 42  1  0  0  0  0
  6 35  1  0  0  0  0
 25 48  1  0  0  0  0
 49 50  1  0  0  0  0
 49 51  1  0  0  0  0
 50 52  1  0  0  0  0
 51 53  1  0  0  0  0
 52 54  1  0  0  0  0
 53 54  1  0  0  0  0
 48 49  1  0  0  0  0
M  END
> <NMREDATA_VERSION>
1.1

> <NMREDATA_LEVEL>
0

> <NMREDATA_SOLVENT>
toluene-d8

> <NMREDATA_TEMPERATURE>
248

> <NMREDATA_FORMULA>
C47H49NP2RhS

> <NMREDATA_SMILES>
C1CCC(CC1)S[RhH2](P(c1ccccc1)(c1ccccc1)c1ccccc1)(P(c1ccccc1)(c1ccccc1)c1ccccc1)c1ccncc1

> <NMREDATA_ASSIGNMENT>
Rh25, 206.00, 25

> <NMREDATA_1D_103Rh>
206.00, L=Rh25

$$$$
