
  ACD/LABS03142420032D

 60 66  0  0  0  0  0  0  0  0  2 V2000
   10.9133   -8.7203    0.0000 P    0  0  0  0  0  0  0  0  0  0  0  0
   11.9256   -9.5723    0.0000 C    0  0  0  0  0  0  0  0  0  0  0  0
   11.6945  -10.8861    0.0000 C    0  0  0  0  0  0  0  0  0  0  0  0
   13.1862   -9.1195    0.0000 C    0  0  0  0  0  0  0  0  0  0  0  0
   12.7068  -11.7385    0.0000 C    0  0  0  0  0  0  0  0  0  0  0  0
   14.1982   -9.9805    0.0000 C    0  0  0  0  0  0  0  0  0  0  0  0
   13.9671  -11.2947    0.0000 C    0  0  0  0  0  0  0  0  0  0  0  0
   10.2477   -7.5664    0.0000 C    0  0  0  0  0  0  0  0  0  0  0  0
   11.0998   -6.5455    0.0000 C    0  0  0  0  0  0  0  0  0  0  0  0
    8.9429   -7.3443    0.0000 C    0  0  0  0  0  0  0  0  0  0  0  0
   10.6384   -5.2938    0.0000 C    0  0  0  0  0  0  0  0  0  0  0  0
    8.4815   -6.0927    0.0000 C    0  0  0  0  0  0  0  0  0  0  0  0
    9.3332   -5.0717    0.0000 C    0  0  0  0  0  0  0  0  0  0  0  0
   11.7746   -7.7083    0.0000 C    0  0  0  0  0  0  0  0  0  0  0  0
   13.0795   -7.9394    0.0000 C    0  0  0  0  0  0  0  0  0  0  0  0
   13.9405   -6.9271    0.0000 O    0  0  0  0  0  0  0  0  0  0  0  0
   15.2543   -7.1582    0.0000 C    0  0  0  0  0  0  0  0  0  0  0  0
    7.2029   -9.2173    0.0000 P    0  0  0  0  0  0  0  0  0  0  0  0
    6.9722  -10.5311    0.0000 C    0  0  0  0  0  0  0  0  0  0  0  0
    5.7206  -10.9749    0.0000 C    0  0  0  0  0  0  0  0  0  0  0  0
    7.9842  -11.3835    0.0000 C    0  0  0  0  0  0  0  0  0  0  0  0
    5.4809  -12.2887    0.0000 C    0  0  0  0  0  0  0  0  0  0  0  0
    7.7534  -12.6973    0.0000 C    0  0  0  0  0  0  0  0  0  0  0  0
    6.5018  -13.1501    0.0000 C    0  0  0  0  0  0  0  0  0  0  0  0
    5.8981   -8.9776    0.0000 C    0  0  0  0  0  0  0  0  0  0  0  0
    5.4453   -7.7349    0.0000 C    0  0  0  0  0  0  0  0  0  0  0  0
    5.0371   -9.9985    0.0000 C    0  0  0  0  0  0  0  0  0  0  0  0
    4.1315   -7.5042    0.0000 C    0  0  0  0  0  0  0  0  0  0  0  0
    3.7229   -9.7588    0.0000 C    0  0  0  0  0  0  0  0  0  0  0  0
    3.2705   -8.5162    0.0000 C    0  0  0  0  0  0  0  0  0  0  0  0
    7.6647   -7.9746    0.0000 C    0  0  0  0  0  0  0  0  0  0  0  0
    6.8123   -6.9537    0.0000 C    0  0  0  0  0  0  0  0  0  0  0  0
    7.4782   -5.7998    0.0000 O    0  0  0  0  0  0  0  0  0  0  0  0
    6.8123   -4.6455    0.0000 C    0  0  0  0  0  0  0  0  0  0  0  0
   10.0522   -9.7322    0.0000 Rh   0  3  0  0  0  0  0  0  0  0  0  0
   23.4272  -12.5398    0.0000 C    0  0  0  0  0  0  0  0  0  0  0  0
   24.0922  -13.6916    0.0000 C    0  0  0  0  0  0  0  0  0  0  0  0
   22.0972  -12.5398    0.0000 C    0  0  0  0  0  0  0  0  0  0  0  0
   23.4272  -14.8434    0.0000 C    0  0  0  0  0  0  0  0  0  0  0  0
   21.4322  -13.6916    0.0000 C    0  0  0  0  0  0  0  0  0  0  0  0
   22.0972  -14.8434    0.0000 C    0  0  0  0  0  0  0  0  0  0  0  0
   21.4322  -11.3880    0.0000 B    0  5  0  0  0  0  0  0  0  0  0  0
   22.5840  -10.7230    0.0000 C    0  0  0  0  0  0  0  0  0  0  0  0
   22.5840   -9.3930    0.0000 C    0  0  0  0  0  0  0  0  0  0  0  0
   23.7359  -11.3880    0.0000 C    0  0  0  0  0  0  0  0  0  0  0  0
   23.7359   -8.7280    0.0000 C    0  0  0  0  0  0  0  0  0  0  0  0
   24.8877  -10.7230    0.0000 C    0  0  0  0  0  0  0  0  0  0  0  0
   24.8877   -9.3930    0.0000 C    0  0  0  0  0  0  0  0  0  0  0  0
   20.2804  -12.0530    0.0000 C    0  0  0  0  0  0  0  0  0  0  0  0
   20.2804  -13.3830    0.0000 C    0  0  0  0  0  0  0  0  0  0  0  0
   19.1286  -11.3880    0.0000 C    0  0  0  0  0  0  0  0  0  0  0  0
   19.1286  -14.0480    0.0000 C    0  0  0  0  0  0  0  0  0  0  0  0
   17.9768  -12.0530    0.0000 C    0  0  0  0  0  0  0  0  0  0  0  0
   17.9768  -13.3830    0.0000 C    0  0  0  0  0  0  0  0  0  0  0  0
   20.7672  -10.2362    0.0000 C    0  0  0  0  0  0  0  0  0  0  0  0
   19.4372  -10.2362    0.0000 C    0  0  0  0  0  0  0  0  0  0  0  0
   21.4322   -9.0843    0.0000 C    0  0  0  0  0  0  0  0  0  0  0  0
   18.7722   -9.0843    0.0000 C    0  0  0  0  0  0  0  0  0  0  0  0
   20.7672   -7.9325    0.0000 C    0  0  0  0  0  0  0  0  0  0  0  0
   19.4372   -7.9325    0.0000 C    0  0  0  0  0  0  0  0  0  0  0  0
  2  3  1  0  0  0  0
  2  4  1  0  0  0  0
  3  5  1  0  0  0  0
  4  6  1  0  0  0  0
  5  7  1  0  0  0  0
  6  7  1  0  0  0  0
  1  2  1  0  0  0  0
  8  9  1  0  0  0  0
  8 10  1  0  0  0  0
  9 11  1  0  0  0  0
 10 12  1  0  0  0  0
 11 13  1  0  0  0  0
 12 13  1  0  0  0  0
  1  8  1  0  0  0  0
  1 14  1  0  0  0  0
 14 15  1  0  0  0  0
 15 16  1  0  0  0  0
 16 17  1  0  0  0  0
 19 20  1  0  0  0  0
 19 21  1  0  0  0  0
 20 22  1  0  0  0  0
 21 23  1  0  0  0  0
 22 24  1  0  0  0  0
 23 24  1  0  0  0  0
 18 19  1  0  0  0  0
 25 26  1  0  0  0  0
 25 27  1  0  0  0  0
 26 28  1  0  0  0  0
 27 29  1  0  0  0  0
 28 30  1  0  0  0  0
 29 30  1  0  0  0  0
 18 25  1  0  0  0  0
 18 31  1  0  0  0  0
 31 32  1  0  0  0  0
 32 33  1  0  0  0  0
 33 34  1  0  0  0  0
 18 35  1  0  0  0  0
  1 35  1  0  0  0  0
 36 37  1  0  0  0  0
 36 38  2  0  0  0  0
 37 39  2  0  0  0  0
 38 40  1  0  0  0  0
 39 41  1  0  0  0  0
 40 41  2  0  0  0  0
 43 44  1  0  0  0  0
 43 45  2  0  0  0  0
 44 46  2  0  0  0  0
 45 47  1  0  0  0  0
 46 48  1  0  0  0  0
 47 48  2  0  0  0  0
 42 43  1  0  0  0  0
 49 50  1  0  0  0  0
 49 51  2  0  0  0  0
 50 52  2  0  0  0  0
 51 53  1  0  0  0  0
 52 54  1  0  0  0  0
 53 54  2  0  0  0  0
 42 49  1  0  0  0  0
 55 56  1  0  0  0  0
 55 57  2  0  0  0  0
 56 58  2  0  0  0  0
 57 59  1  0  0  0  0
 58 60  1  0  0  0  0
 59 60  2  0  0  0  0
 42 55  1  0  0  0  0
 38 42  1  0  0  0  0
M  END
> <NMREDATA_VERSION>
1.1

> <NMREDATA_LEVEL>
0

> <NMREDATA_SOLVENT>
CD2Cl2

> <NMREDATA_TEMPERATURE>
243

> <NMREDATA_FORMULA>
C54H80BO2P2Rh

> <NMREDATA_SMILES>
c1ccc(cc1)[B](c1ccccc1)(c1ccccc1)c1ccccc1.COCCP(C1CCCCC1)(C1CCCCC1)[Rh]P(C1CCCCC1)(C1CCCCC1)CCOC

> <NMREDATA_ASSIGNMENT>
Rh35, 65.00, 35

> <NMREDATA_1D_103Rh>
65.00, L=Rh35

$$$$
