
  ACD/LABS03112411192D

 35 33  0  0  0  0  0  0  0  0  2 V2000
    9.9189  -16.5113    0.0000 O    0  0  0  0  0  0  0  0  0  0  0  0
    8.6049  -16.5113    0.0000 C    0  0  0  0  0  0  0  0  0  0  0  0
    7.9480  -15.3734    0.0000 C    0  0  0  0  0  0  0  0  0  0  0  0
    6.6340  -15.3734    0.0000 P    0  0  0  0  0  0  0  0  0  0  0  0
    5.9770  -16.5113    0.0000 C    0  0  0  0  0  0  0  0  0  0  0  0
    6.6340  -17.6493    0.0000 C    0  0  0  0  0  0  0  0  0  0  0  0
    5.9770  -18.7872    0.0000 C    0  0  0  0  0  0  0  0  0  0  0  0
    6.6340  -19.9251    0.0000 C    0  0  0  0  0  0  0  0  0  0  0  0
    5.9770  -14.2354    0.0000 C    0  0  0  0  0  0  0  0  0  0  0  0
    6.6340  -13.0975    0.0000 C    0  0  0  0  0  0  0  0  0  0  0  0
    5.9770  -11.9596    0.0000 C    0  0  0  0  0  0  0  0  0  0  0  0
    6.6340  -10.8216    0.0000 C    0  0  0  0  0  0  0  0  0  0  0  0
   10.5759  -17.6493    0.0000 Rh   0  3  0  0  0  0  0  0  0  0  0  0
    9.9189  -18.7872    0.0000 C    0  0  0  0  0  0  0  0  0  0  0  0
    9.2619  -19.9251    0.0000 O    0  0  0  0  0  0  0  0  0  0  0  0
   11.8899  -17.6493    0.0000 O    0  0  0  0  0  0  0  0  0  0  0  0
   12.5469  -16.5113    0.0000 C    0  0  0  0  0  0  0  0  0  0  0  0
   13.8608  -16.5113    0.0000 C    0  0  0  0  0  0  0  0  0  0  0  0
   14.5178  -15.3734    0.0000 P    0  0  0  0  0  0  0  0  0  0  0  0
   13.8608  -14.2354    0.0000 C    0  0  0  0  0  0  0  0  0  0  0  0
   14.5178  -13.0975    0.0000 C    0  0  0  0  0  0  0  0  0  0  0  0
   13.8608  -11.9596    0.0000 C    0  0  0  0  0  0  0  0  0  0  0  0
   14.5178  -10.8216    0.0000 C    0  0  0  0  0  0  0  0  0  0  0  0
   15.8318  -15.3734    0.0000 C    0  0  0  0  0  0  0  0  0  0  0  0
   16.4888  -16.5113    0.0000 C    0  0  0  0  0  0  0  0  0  0  0  0
   17.8028  -16.5113    0.0000 C    0  0  0  0  0  0  0  0  0  0  0  0
   18.4598  -17.6493    0.0000 C    0  0  0  0  0  0  0  0  0  0  0  0
   24.3727  -13.8592    0.0000 S    0  0  0  0  0  0  0  0  0  0  0  0
   25.0777  -12.6380    0.0000 O    0  0  0  0  0  0  0  0  0  0  0  0
   25.5939  -14.5642    0.0000 O    0  0  0  0  0  0  0  0  0  0  0  0
   23.6676  -15.0804    0.0000 C    0  0  0  0  0  0  0  0  0  0  0  0
   22.4464  -14.3753    0.0000 F    0  0  0  0  0  0  0  0  0  0  0  0
   24.8888  -15.7854    0.0000 F    0  0  0  0  0  0  0  0  0  0  0  0
   22.9625  -16.3016    0.0000 F    0  0  0  0  0  0  0  0  0  0  0  0
   23.1515  -13.1541    0.0000 O    0  5  0  0  0  0  0  0  0  0  0  0
  1  2  1  0  0  0  0
  2  3  1  0  0  0  0
  3  4  1  0  0  0  0
  4  5  1  0  0  0  0
  5  6  1  0  0  0  0
  6  7  1  0  0  0  0
  7  8  1  0  0  0  0
  4  9  1  0  0  0  0
  9 10  1  0  0  0  0
 10 11  1  0  0  0  0
 11 12  1  0  0  0  0
 13 14  1  0  0  0  0
 14 15  3  0  0  0  0
 13 16  1  0  0  0  0
 16 17  1  0  0  0  0
 17 18  1  0  0  0  0
 18 19  1  0  0  0  0
 19 20  1  0  0  0  0
 20 21  1  0  0  0  0
 21 22  1  0  0  0  0
 22 23  1  0  0  0  0
 19 24  1  0  0  0  0
 24 25  1  0  0  0  0
 25 26  1  0  0  0  0
 26 27  1  0  0  0  0
  1 13  1  0  0  0  0
 28 29  2  0  0  0  0
 28 30  2  0  0  0  0
 28 31  1  0  0  0  0
 31 32  1  0  0  0  0
 31 33  1  0  0  0  0
 31 34  1  0  0  0  0
 28 35  1  0  0  0  0
M  END
> <NMREDATA_VERSION>
1.1

> <NMREDATA_LEVEL>
0

> <NMREDATA_SOLVENT>
DCCl3

> <NMREDATA_FORMULA>
C22H45F3O6P2RhS

> <NMREDATA_SMILES>
FC(S(=O)(=O)O)(F)F.CCCCP(CCCC)CCO[Rh](C#[O])OCCP(CCCC)CCCC

> <NMREDATA_ASSIGNMENT>
Rh13, -526.00, 13

> <NMREDATA_1D_103Rh>
-526.00, L=Rh13

$$$$
