
  ACD/LABS02122411492D

 18 17  0  0  0  0  0  0  0  0  1 V2000
   18.9620  -10.5204    0.0000 Rh   0  0  0  0  0  0  0  0  0  0  0  0
   20.0723   -9.6949    0.0000 C    0  0  0  0  0  0  0  0  0  0  0  0
   20.2912  -11.2878    0.0000 P    0  0  0  0  0  0  0  0  0  0  0  0
   17.4441  -10.4762    0.0000 P    0  0  0  0  0  0  0  0  0  0  0  0
   21.5843  -11.6135    0.0000 C    0  0  0  0  0  0  0  0  0  0  0  0
   20.7360  -12.5045    0.0000 C    0  0  0  0  0  0  0  0  0  0  0  0
   16.1295  -10.3535    0.0000 C    0  0  0  0  0  0  0  0  0  0  0  0
   16.7253   -9.3562    0.0000 C    0  0  0  0  0  0  0  0  0  0  0  0
   21.3577  -10.4228    0.0000 C    0  0  0  0  0  0  0  0  0  0  0  0
   16.4948  -11.4077    0.0000 C    0  0  0  0  0  0  0  0  0  0  0  0
   18.8971   -8.9918    0.0000 P    0  0  0  0  0  0  0  0  0  0  0  0
   18.7292  -12.0096    0.0000 P    0  0  0  0  0  0  0  0  0  0  0  0
   18.7736   -7.6691    0.0000 C    0  0  0  0  0  0  0  0  0  0  0  0
   20.0233   -8.2021    0.0000 C    0  0  0  0  0  0  0  0  0  0  0  0
   17.7943   -8.3319    0.0000 C    0  0  0  0  0  0  0  0  0  0  0  0
   18.1982  -13.2424    0.0000 C    0  0  0  0  0  0  0  0  0  0  0  0
   19.3910  -13.1536    0.0000 C    0  0  0  0  0  0  0  0  0  0  0  0
   17.5158  -12.4079    0.0000 C    0  0  0  0  0  0  0  0  0  0  0  0
  1  2  1  0  0  0  0
  1  3  1  0  0  0  0
  1  4  1  0  0  0  0
  3  5  1  0  0  0  0
  3  6  1  0  0  0  0
  4  7  1  0  0  0  0
  4  8  1  0  0  0  0
  3  9  1  0  0  0  0
  4 10  1  0  0  0  0
  1 11  1  0  0  0  0
  1 12  1  0  0  0  0
 11 13  1  0  0  0  0
 11 14  1  0  0  0  0
 11 15  1  0  0  0  0
 12 16  1  0  0  0  0
 12 17  1  0  0  0  0
 12 18  1  0  0  0  0
M  END
> <NMREDATA_VERSION>
1.1

> <NMREDATA_LEVEL>
0

> <NMREDATA_SOLVENT>
toluene-d8

> <NMREDATA_TEMPERATURE>
223

> <NMREDATA_FORMULA>
C13H43P4Rh

> <NMREDATA_SMILES>
CP([Rh](P(C)(C)C)(P(C)(C)C)(P(C)(C)C)C)(C)C

> <NMREDATA_ASSIGNMENT>
Rh1, -490.00, 1

> <NMREDATA_1D_103Rh>
-490.00, L=Rh1

$$$$
