
  ACD/LABS03122417142D

 42 47  0  0  0  0  0  0  0  0  1 V2000
    4.8053   -8.3886    0.0000 C    0  0  0  0  0  0  0  0  0  0  0  0
    4.8053   -9.7186    0.0000 C    0  0  0  0  0  0  0  0  0  0  0  0
    3.6534   -7.7236    0.0000 C    0  0  0  0  0  0  0  0  0  0  0  0
    3.6534  -10.3836    0.0000 C    0  0  0  0  0  0  0  0  0  0  0  0
    2.5017   -8.3886    0.0000 C    0  0  0  0  0  0  0  0  0  0  0  0
    2.5017   -9.7186    0.0000 C    0  0  0  0  0  0  0  0  0  0  0  0
    4.7893  -11.8338    0.0000 C    0  0  0  0  0  0  0  0  0  0  0  0
    4.7893  -13.1638    0.0000 C    0  0  0  0  0  0  0  0  0  0  0  0
    3.6374  -11.1688    0.0000 C    0  0  0  0  0  0  0  0  0  0  0  0
    3.6374  -13.8288    0.0000 C    0  0  0  0  0  0  0  0  0  0  0  0
    2.4856  -11.8338    0.0000 C    0  0  0  0  0  0  0  0  0  0  0  0
    2.4856  -13.1638    0.0000 C    0  0  0  0  0  0  0  0  0  0  0  0
   14.6922   -5.3601    0.0000 C    0  0  0  0  0  0  0  0  0  0  0  0
   14.6922   -6.6901    0.0000 C    0  0  0  0  0  0  0  0  0  0  0  0
   13.5403   -4.6951    0.0000 C    0  0  0  0  0  0  0  0  0  0  0  0
   13.5403   -7.3551    0.0000 C    0  0  0  0  0  0  0  0  0  0  0  0
   12.3885   -5.3601    0.0000 C    0  0  0  0  0  0  0  0  0  0  0  0
   12.3885   -6.6901    0.0000 C    0  0  0  0  0  0  0  0  0  0  0  0
   10.8785   -3.9980    0.0000 C    0  0  0  0  0  0  0  0  0  0  0  0
   10.8785   -5.3280    0.0000 C    0  0  0  0  0  0  0  0  0  0  0  0
    9.7266   -3.3330    0.0000 C    0  0  0  0  0  0  0  0  0  0  0  0
    9.7266   -5.9930    0.0000 C    0  0  0  0  0  0  0  0  0  0  0  0
    8.5748   -3.9980    0.0000 C    0  0  0  0  0  0  0  0  0  0  0  0
    8.5748   -5.3280    0.0000 C    0  0  0  0  0  0  0  0  0  0  0  0
   13.6026   -8.7411    0.0000 C    0  0  0  0  0  0  0  0  0  0  0  0
   13.6026  -10.0711    0.0000 C    0  0  0  0  0  0  0  0  0  0  0  0
   12.4507   -8.0761    0.0000 C    0  0  0  0  0  0  0  0  0  0  0  0
   12.4507  -10.7361    0.0000 C    0  0  0  0  0  0  0  0  0  0  0  0
   11.2989   -8.7411    0.0000 C    0  0  0  0  0  0  0  0  0  0  0  0
   11.2989  -10.0711    0.0000 C    0  0  0  0  0  0  0  0  0  0  0  0
    7.8820  -12.5709    0.0000 C    0  0  0  0  0  0  0  0  0  0  0  0
    7.8820  -13.9009    0.0000 C    0  0  0  0  0  0  0  0  0  0  0  0
    6.7301  -11.9059    0.0000 C    0  0  0  0  0  0  0  0  0  0  0  0
    6.7301  -14.5659    0.0000 C    0  0  0  0  0  0  0  0  0  0  0  0
    5.5783  -12.5709    0.0000 C    0  0  0  0  0  0  0  0  0  0  0  0
    5.5783  -13.9009    0.0000 C    0  0  0  0  0  0  0  0  0  0  0  0
    7.8839   -9.4382    0.0000 Rh   0  0  0  0  0  0  0  0  0  0  0  0
    9.6305   -8.3486    0.0000 P    0  0  0  0  0  0  0  0  0  0  0  0
    6.8102  -10.6560    0.0000 P    0  0  0  0  0  0  0  0  0  0  0  0
    7.0346   -7.7396    0.0000 I    0  0  0  0  0  0  0  0  0  0  0  0
    9.5183  -11.2169    0.0000 C    0  0  0  0  0  0  0  0  0  0  0  0
   10.3035  -12.5469    0.0000 O    0  0  0  0  0  0  0  0  0  0  0  0
  1  2  1  0  0  0  0
  1  3  2  0  0  0  0
  2  4  2  0  0  0  0
  3  5  1  0  0  0  0
  4  6  1  0  0  0  0
  5  6  2  0  0  0  0
  7  8  1  0  0  0  0
  7  9  2  0  0  0  0
  8 10  2  0  0  0  0
  9 11  1  0  0  0  0
 10 12  1  0  0  0  0
 11 12  2  0  0  0  0
 13 14  1  0  0  0  0
 13 15  2  0  0  0  0
 14 16  2  0  0  0  0
 15 17  1  0  0  0  0
 16 18  1  0  0  0  0
 17 18  2  0  0  0  0
 19 20  1  0  0  0  0
 19 21  2  0  0  0  0
 20 22  2  0  0  0  0
 21 23  1  0  0  0  0
 22 24  1  0  0  0  0
 23 24  2  0  0  0  0
 25 26  1  0  0  0  0
 25 27  2  0  0  0  0
 26 28  2  0  0  0  0
 27 29  1  0  0  0  0
 28 30  1  0  0  0  0
 29 30  2  0  0  0  0
 31 32  1  0  0  0  0
 31 33  2  0  0  0  0
 32 34  2  0  0  0  0
 33 35  1  0  0  0  0
 34 36  1  0  0  0  0
 35 36  2  0  0  0  0
 37 38  1  0  0  0  0
 37 39  1  0  0  0  0
 37 40  1  0  0  0  0
 37 41  1  0  0  0  0
 41 42  3  0  0  0  0
 33 39  1  0  0  0  0
 29 38  1  0  0  0  0
 22 38  1  0  0  0  0
 18 38  1  0  0  0  0
  7 39  1  0  0  0  0
  2 39  1  0  0  0  0
M  END
> <NMREDATA_VERSION>
1.1

> <NMREDATA_LEVEL>
0

> <NMREDATA_SOLVENT>
toluene-d8

> <NMREDATA_TEMPERATURE>
295

> <NMREDATA_FORMULA>
C37H32IOP2Rh

> <NMREDATA_SMILES>
[O]#C[Rh](P(c1ccccc1)(c1ccccc1)c1ccccc1)(P(c1ccccc1)(c1ccccc1)c1ccccc1)I

> <NMREDATA_ASSIGNMENT>
Rh37, -532.00, 37

> <NMREDATA_1D_103Rh>
-532.00, L=Rh37

$$$$
