
  ACD/LABS03082410042D

 28 32  0  0  0  0  0  0  0  0  1 V2000
    5.5443  -19.1007    0.0000 C    0  0  0  0  0  0  0  0  0  0  0  0
    5.5123  -17.6265    0.0000 C    0  0  0  0  0  0  0  0  0  0  0  0
    7.3230  -16.8093    0.0000 C    0  0  0  0  0  0  0  0  0  0  0  0
    8.9094  -17.7387    0.0000 C    0  0  0  0  0  0  0  0  0  0  0  0
    6.9865  -18.4117    0.0000 C    0  0  0  0  0  0  0  0  0  0  0  0
    8.2845  -19.1328    0.0000 C    0  0  0  0  0  0  0  0  0  0  0  0
    7.0346  -15.8478    0.0000 C    0  0  0  0  0  0  0  0  0  0  0  0
   10.0561  -13.4905    0.0000 C    0  0  0  0  0  0  0  0  0  0  0  0
   11.1839  -14.3205    0.0000 C    0  0  0  0  0  0  0  0  0  0  0  0
    8.9160  -14.1487    0.0000 N    0  0  0  0  0  0  0  0  0  0  0  0
   10.6805  -15.6143    0.0000 C    0  0  0  0  0  0  0  0  0  0  0  0
    9.3099  -15.4650    0.0000 N    0  0  0  0  0  0  0  0  0  0  0  0
   10.5370  -12.2504    0.0000 C    0  0  0  0  0  0  0  0  0  0  0  0
    7.6219  -10.9670    0.0000 C    0  0  0  0  0  0  0  0  0  0  0  0
    6.6953   -9.9247    0.0000 C    0  0  0  0  0  0  0  0  0  0  0  0
    7.1092  -12.2227    0.0000 N    0  0  0  0  0  0  0  0  0  0  0  0
    5.4666  -10.5661    0.0000 C    0  0  0  0  0  0  0  0  0  0  0  0
    5.8006  -11.8743    0.0000 N    0  0  0  0  0  0  0  0  0  0  0  0
    8.8569  -10.4849    0.0000 C    0  0  0  0  0  0  0  0  0  0  0  0
    7.5403  -14.8373    0.0000 Rh   0  0  0  0  0  0  0  0  0  0  0  0
    7.6248  -13.5658    0.0000 B    0  0  0  0  0  0  0  0  0  0  0  0
    6.2092  -14.1005    0.0000 C    0  0  0  0  0  0  0  0  0  0  0  0
    5.7064  -15.3238    0.0000 C    0  0  0  0  0  0  0  0  0  0  0  0
    5.2412  -13.2753    0.0000 C    0  0  0  0  0  0  0  0  0  0  0  0
    4.4107  -15.5838    0.0000 C    0  0  0  0  0  0  0  0  0  0  0  0
    3.9429  -13.3659    0.0000 C    0  0  0  0  0  0  0  0  0  0  0  0
    3.4662  -14.6439    0.0000 C    0  0  0  0  0  0  0  0  0  0  0  0
    8.6039  -12.4536    0.0000 C    0  0  0  0  0  0  0  0  0  0  0  0
  1  2  2  0  0  0  0
  2  3  1  0  0  0  0
  3  4  1  0  0  0  0
  1  5  1  0  0  0  0
  5  6  1  0  0  0  0
  6  4  2  0  0  0  0
  5  7  1  0  0  0  0
  3  7  1  0  0  0  0
  8  9  2  0  0  0  0
  8 10  1  0  0  0  0
  9 11  1  0  0  0  0
 10 12  1  0  0  0  0
 11 12  2  0  0  0  0
  8 13  1  0  0  0  0
 14 15  2  0  0  0  0
 14 16  1  0  0  0  0
 15 17  1  0  0  0  0
 16 18  1  0  0  0  0
 17 18  2  0  0  0  0
 14 19  1  0  0  0  0
 20 21  1  0  0  0  0
 22 23  1  0  0  0  0
 22 24  2  0  0  0  0
 23 25  2  0  0  0  0
 24 26  1  0  0  0  0
 25 27  1  0  0  0  0
 26 27  2  0  0  0  0
 21 22  1  0  0  0  0
 21 28  1  0  0  0  0
 16 21  1  0  0  0  0
 10 21  1  0  0  0  0
  7 20  1  0  0  0  0
M  END
> <NMREDATA_VERSION>
1.1

> <NMREDATA_LEVEL>
0

> <NMREDATA_SOLVENT>
DCCl3

> <NMREDATA_TEMPERATURE>
298

> <NMREDATA_FORMULA>
C22H25BN4Rh

> <NMREDATA_SMILES>
Cc1ccnn1[B](n1nccc1C)(c1ccccc1)([Rh]C1C2C=CC1C=C2)C

> <NMREDATA_ASSIGNMENT>
Rh20, 1340.00, 20

> <NMREDATA_1D_103Rh>
1340.00, L=Rh20

$$$$
