
  ACD/LABS03212412422D

 31 32  0  0  0  0  0  0  0  0  1 V2000
   19.1984  -15.6332    0.0000 N    0  0  0  0  0  0  0  0  0  0  0  0
   19.8632  -16.7847    0.0000 C    0  0  0  0  0  0  0  0  0  0  0  0
   19.2133  -17.9278    0.0000 C    0  0  0  0  0  0  0  0  0  0  0  0
   21.1940  -16.7843    0.0000 C    0  0  0  0  0  0  0  0  0  0  0  0
   21.8595  -15.6322    0.0000 C    0  0  0  0  0  0  0  0  0  0  0  0
   21.8590  -17.9361    0.0000 N    0  0  0  0  0  0  0  0  0  0  0  0
   17.8835  -15.6245    0.0000 O    0  0  0  0  0  0  0  0  0  0  0  0
   23.1893  -17.9355    0.0000 O    0  0  0  0  0  0  0  0  0  0  0  0
   17.2083  -12.1862    0.0000 N    0  0  0  0  0  0  0  0  0  0  0  0
   16.5433  -11.0344    0.0000 C    0  0  0  0  0  0  0  0  0  0  0  0
   15.2211  -11.0303    0.0000 C    0  0  0  0  0  0  0  0  0  0  0  0
   17.2093   -9.8825    0.0000 C    0  0  0  0  0  0  0  0  0  0  0  0
   18.5352   -9.8744    0.0000 C    0  0  0  0  0  0  0  0  0  0  0  0
   16.5443   -8.7307    0.0000 N    0  0  0  0  0  0  0  0  0  0  0  0
   16.5509  -13.3336    0.0000 O    0  0  0  0  0  0  0  0  0  0  0  0
   17.2054   -7.5711    0.0000 O    0  0  0  0  0  0  0  0  0  0  0  0
   22.9616  -11.1574    0.0000 C    0  0  0  0  0  0  0  0  0  0  0  0
   22.9651  -12.4756    0.0000 C    0  0  0  0  0  0  0  0  0  0  0  0
   21.8140  -10.4997    0.0000 C    0  0  0  0  0  0  0  0  0  0  0  0
   21.8133  -13.1406    0.0000 C    0  0  0  0  0  0  0  0  0  0  0  0
   20.6622  -11.1647    0.0000 C    0  0  0  0  0  0  0  0  0  0  0  0
   20.6657  -12.4829    0.0000 C    0  0  0  0  0  0  0  0  0  0  0  0
   17.2113  -14.4773    0.0000 Rh   0  0  0  0  0  0  0  0  0  0  0  0
   18.3624  -13.8127    0.0000 C    0  0  0  0  0  0  0  0  0  0  0  0
   19.5142  -13.1477    0.0000 C    0  0  0  0  0  0  0  0  0  0  0  0
   16.0616  -15.1461    0.0000 N    0  0  0  0  0  0  0  0  0  0  0  0
   16.0659  -16.4761    0.0000 C    0  0  0  0  0  0  0  0  0  0  0  0
   14.9076  -14.4848    0.0000 C    0  0  0  0  0  0  0  0  0  0  0  0
   14.9161  -17.1448    0.0000 C    0  0  0  0  0  0  0  0  0  0  0  0
   13.7579  -15.1535    0.0000 C    0  0  0  0  0  0  0  0  0  0  0  0
   13.7622  -16.4835    0.0000 C    0  0  0  0  0  0  0  0  0  0  0  0
  1  2  2  0  0  0  0
  2  3  1  0  0  0  0
  2  4  1  0  0  0  0
  4  5  1  0  0  0  0
  4  6  2  0  0  0  0
  1  7  1  0  0  0  0
  6  8  1  0  0  0  0
  9 10  2  0  0  0  0
 10 11  1  0  0  0  0
 10 12  1  0  0  0  0
 12 13  1  0  0  0  0
 12 14  2  0  0  0  0
  9 15  1  0  0  0  0
 14 16  1  0  0  0  0
 17 18  1  0  0  0  0
 17 19  2  0  0  0  0
 18 20  2  0  0  0  0
 19 21  1  0  0  0  0
 20 22  1  0  0  0  0
 21 22  2  0  0  0  0
 23 24  1  0  0  0  0
 24 25  3  0  0  0  0
 22 25  1  0  0  0  0
 15 23  1  0  0  0  0
  7 23  1  0  0  0  0
 26 27  1  0  0  0  0
 26 28  2  0  0  0  0
 27 29  2  0  0  0  0
 28 30  1  0  0  0  0
 29 31  1  0  0  0  0
 30 31  2  0  0  0  0
 23 26  1  0  0  0  0
M  END
> <NMREDATA_VERSION>
1.1

> <NMREDATA_LEVEL>
0

> <NMREDATA_SOLVENT>
DCCl3

> <NMREDATA_TEMPERATURE>
298

> <NMREDATA_FORMULA>
C21H25N5O4Rh

> <NMREDATA_SMILES>
O/N=C(/C(=N/O[Rh](N1=CC=CC=C1)(C#Cc1ccccc1)O/N=C(/C(=N/O)/C)\C)/C)\C

> <NMREDATA_ASSIGNMENT>
Rh23, 2823.00, 23

> <NMREDATA_1D_103Rh>
2823.00, L=Rh23

$$$$
