
  ACD/LABS03222419172D

 41 43  0  0  0  0  0  0  0  0  1 V2000
   17.9638   -2.4668    0.0000 O    0  0  0  0  0  0  0  0  0  0  0  0
   18.6048   -3.5769    0.0000 N    0  0  0  0  0  0  0  0  0  0  0  0
   17.9638   -4.6871    0.0000 C    0  0  0  0  0  0  0  0  0  0  0  0
   16.6819   -4.6871    0.0000 C    0  0  0  0  0  0  0  0  0  0  0  0
   18.6048   -5.7973    0.0000 C    0  0  0  0  0  0  0  0  0  0  0  0
   19.8867   -5.7973    0.0000 C    0  0  0  0  0  0  0  0  0  0  0  0
   17.9638   -6.9075    0.0000 N    0  0  0  0  0  0  0  0  0  0  0  0
   18.6048   -8.0177    0.0000 O    0  0  0  0  0  0  0  0  0  0  0  0
   12.1952  -12.4584    0.0000 O    0  0  0  0  0  0  0  0  0  0  0  0
   13.4771  -12.4584    0.0000 N    0  0  0  0  0  0  0  0  0  0  0  0
   14.1180  -11.3482    0.0000 C    0  0  0  0  0  0  0  0  0  0  0  0
   13.4771  -10.2380    0.0000 C    0  0  0  0  0  0  0  0  0  0  0  0
   15.4000  -11.3482    0.0000 C    0  0  0  0  0  0  0  0  0  0  0  0
   16.0409  -12.4584    0.0000 C    0  0  0  0  0  0  0  0  0  0  0  0
   16.0409  -10.2380    0.0000 N    0  0  0  0  0  0  0  0  0  0  0  0
   17.3229  -10.2380    0.0000 O    0  0  0  0  0  0  0  0  0  0  0  0
   17.9638   -9.1278    0.0000 Rh   0  0  0  0  0  0  0  0  0  0  0  0
   19.0740   -9.7688    0.0000 P    0  0  0  0  0  0  0  0  0  0  0  0
   19.7150   -8.6586    0.0000 O    0  0  0  0  0  0  0  0  0  0  0  0
   16.8536   -8.4869    0.0000 C    0  0  0  0  0  0  0  0  0  0  0  0
   18.4330  -10.8790    0.0000 O    0  0  0  0  0  0  0  0  0  0  0  0
   20.1842  -10.4098    0.0000 O    0  0  0  0  0  0  0  0  0  0  0  0
   16.8536   -7.2050    0.0000 C    0  0  0  0  0  0  0  0  0  0  0  0
   20.9969   -8.6586    0.0000 C    0  0  0  0  0  0  0  0  0  0  0  0
   21.6379   -7.5484    0.0000 C    0  0  0  0  0  0  0  0  0  0  0  0
   21.6379   -9.7689    0.0000 C    0  0  0  0  0  0  0  0  0  0  0  0
   22.9199   -7.5485    0.0000 C    0  0  0  0  0  0  0  0  0  0  0  0
   22.9198   -9.7689    0.0000 C    0  0  0  0  0  0  0  0  0  0  0  0
   23.5608   -8.6587    0.0000 C    0  0  0  0  0  0  0  0  0  0  0  0
   20.1842  -11.6917    0.0000 C    0  0  0  0  0  0  0  0  0  0  0  0
   21.2944  -12.3327    0.0000 C    0  0  0  0  0  0  0  0  0  0  0  0
   19.0740  -12.3327    0.0000 C    0  0  0  0  0  0  0  0  0  0  0  0
   21.2943  -13.6147    0.0000 C    0  0  0  0  0  0  0  0  0  0  0  0
   19.0740  -13.6146    0.0000 C    0  0  0  0  0  0  0  0  0  0  0  0
   20.1841  -14.2556    0.0000 C    0  0  0  0  0  0  0  0  0  0  0  0
   19.0740  -11.9892    0.0000 C    0  0  0  0  0  0  0  0  0  0  0  0
   20.3559  -11.9892    0.0000 C    0  0  0  0  0  0  0  0  0  0  0  0
   18.4330  -13.0994    0.0000 C    0  0  0  0  0  0  0  0  0  0  0  0
   20.9969  -13.0995    0.0000 C    0  0  0  0  0  0  0  0  0  0  0  0
   19.0740  -14.2096    0.0000 C    0  0  0  0  0  0  0  0  0  0  0  0
   20.3559  -14.2096    0.0000 C    0  0  0  0  0  0  0  0  0  0  0  0
  1  2  1  0  0  0  0
  2  3  2  0  0  0  0
  3  4  1  0  0  0  0
  3  5  1  0  0  0  0
  5  6  1  0  0  0  0
  5  7  2  0  0  0  0
  7  8  1  0  0  0  0
  9 10  1  0  0  0  0
 10 11  2  0  0  0  0
 11 12  1  0  0  0  0
 11 13  1  0  0  0  0
 13 14  1  0  0  0  0
 13 15  2  0  0  0  0
 15 16  1  0  0  0  0
 16 17  1  0  0  0  0
  8 17  1  0  0  0  0
 17 18  1  0  0  0  0
 18 19  1  0  0  0  0
 17 20  1  0  0  0  0
 18 21  1  0  0  0  0
 18 22  1  0  0  0  0
 20 23  1  0  0  0  0
 24 25  1  0  0  0  0
 24 26  2  0  0  0  0
 25 27  2  0  0  0  0
 26 28  1  0  0  0  0
 27 29  1  0  0  0  0
 28 29  2  0  0  0  0
 19 24  1  0  0  0  0
 30 31  1  0  0  0  0
 30 32  2  0  0  0  0
 31 33  2  0  0  0  0
 32 34  1  0  0  0  0
 33 35  1  0  0  0  0
 34 35  2  0  0  0  0
 22 30  1  0  0  0  0
 36 37  1  0  0  0  0
 36 38  2  0  0  0  0
 37 39  2  0  0  0  0
 38 40  1  0  0  0  0
 39 41  1  0  0  0  0
 40 41  2  0  0  0  0
 21 36  1  0  0  0  0
M  END
> <NMREDATA_VERSION>
1.1

> <NMREDATA_LEVEL>
0

> <NMREDATA_SOLVENT>
DCCl3

> <NMREDATA_TEMPERATURE>
298

> <NMREDATA_FORMULA>
C28H35N4O7PRh

> <NMREDATA_SMILES>
CC[Rh](P(Oc1ccccc1)(Oc1ccccc1)Oc1ccccc1)(O/N=C(/C(=N/O)/C)\C)O/N=C(/C(=N/O)/C)\C

> <NMREDATA_ASSIGNMENT>
Rh17, 1926.00, 17

> <NMREDATA_1D_103Rh>
1926.00, L=Rh17

$$$$
