
  ACD/LABS03132411112D

 90 98  0  0  0  0  0  0  0  0  2 V2000
   20.1303  -14.3227    0.0000 C    0  0  0  0  0  0  0  0  0  0  0  0
   20.7953  -15.4745    0.0000 C    0  0  0  0  0  0  0  0  0  0  0  0
   18.8003  -14.3227    0.0000 C    0  0  0  0  0  0  0  0  0  0  0  0
   20.1303  -16.6263    0.0000 C    0  0  0  0  0  0  0  0  0  0  0  0
   18.1353  -15.4745    0.0000 C    0  0  0  0  0  0  0  0  0  0  0  0
   18.8003  -16.6263    0.0000 C    0  0  0  0  0  0  0  0  0  0  0  0
   18.1353  -17.7781    0.0000 C    0  0  0  0  0  0  0  0  0  0  0  0
   19.2871  -18.4431    0.0000 F    0  0  0  0  0  0  0  0  0  0  0  0
   16.9835  -17.1131    0.0000 F    0  0  0  0  0  0  0  0  0  0  0  0
   17.4703  -18.9299    0.0000 F    0  0  0  0  0  0  0  0  0  0  0  0
   20.1303  -12.0191    0.0000 C    0  0  0  0  0  0  0  0  0  0  0  0
   18.8003  -12.0191    0.0000 C    0  0  0  0  0  0  0  0  0  0  0  0
   20.7953  -10.8672    0.0000 C    0  0  0  0  0  0  0  0  0  0  0  0
   18.1353  -10.8672    0.0000 C    0  0  0  0  0  0  0  0  0  0  0  0
   20.1303   -9.7154    0.0000 C    0  0  0  0  0  0  0  0  0  0  0  0
   18.8003   -9.7154    0.0000 C    0  0  0  0  0  0  0  0  0  0  0  0
   18.1353   -8.5636    0.0000 C    0  0  0  0  0  0  0  0  0  0  0  0
   16.9835   -9.2286    0.0000 F    0  0  0  0  0  0  0  0  0  0  0  0
   19.2871   -7.8986    0.0000 F    0  0  0  0  0  0  0  0  0  0  0  0
   17.4703   -7.4118    0.0000 F    0  0  0  0  0  0  0  0  0  0  0  0
   24.7853  -13.1709    0.0000 C    0  0  0  0  0  0  0  0  0  0  0  0
   26.1153  -13.1709    0.0000 C    0  0  0  0  0  0  0  0  0  0  0  0
   24.1203  -14.3227    0.0000 C    0  0  0  0  0  0  0  0  0  0  0  0
   26.7803  -14.3227    0.0000 C    0  0  0  0  0  0  0  0  0  0  0  0
   24.7853  -15.4745    0.0000 C    0  0  0  0  0  0  0  0  0  0  0  0
   26.1153  -15.4745    0.0000 C    0  0  0  0  0  0  0  0  0  0  0  0
   26.7803  -16.6263    0.0000 C    0  0  0  0  0  0  0  0  0  0  0  0
   27.9321  -15.9613    0.0000 F    0  0  0  0  0  0  0  0  0  0  0  0
   25.6285  -17.2913    0.0000 F    0  0  0  0  0  0  0  0  0  0  0  0
   27.4453  -17.7781    0.0000 F    0  0  0  0  0  0  0  0  0  0  0  0
   24.7853  -10.8672    0.0000 C    0  0  0  0  0  0  0  0  0  0  0  0
   24.1203   -9.7154    0.0000 C    0  0  0  0  0  0  0  0  0  0  0  0
   26.1153  -10.8672    0.0000 C    0  0  0  0  0  0  0  0  0  0  0  0
   24.7853   -8.5636    0.0000 C    0  0  0  0  0  0  0  0  0  0  0  0
   26.7803   -9.7154    0.0000 C    0  0  0  0  0  0  0  0  0  0  0  0
   26.1153   -8.5636    0.0000 C    0  0  0  0  0  0  0  0  0  0  0  0
   26.7803   -7.4118    0.0000 C    0  0  0  0  0  0  0  0  0  0  0  0
   25.6285   -6.7468    0.0000 F    0  0  0  0  0  0  0  0  0  0  0  0
   27.9321   -8.0768    0.0000 F    0  0  0  0  0  0  0  0  0  0  0  0
   27.4453   -6.2600    0.0000 F    0  0  0  0  0  0  0  0  0  0  0  0
   24.1203  -12.0191    0.0000 P    0  0  0  0  0  0  0  0  0  0  0  0
   22.7903  -12.0191    0.0000 C    0  0  0  0  0  0  0  0  0  0  0  0
   22.1253  -13.1709    0.0000 C    0  0  0  0  0  0  0  0  0  0  0  0
   20.7953  -13.1709    0.0000 P    0  0  0  0  0  0  0  0  0  0  0  0
    7.3270  -13.1690    0.0000 C    0  0  0  0  0  0  0  0  0  0  0  0
    7.9920  -14.3208    0.0000 C    0  0  0  0  0  0  0  0  0  0  0  0
    5.9970  -13.1690    0.0000 C    0  0  0  0  0  0  0  0  0  0  0  0
    7.3270  -15.4726    0.0000 C    0  0  0  0  0  0  0  0  0  0  0  0
    5.3320  -14.3208    0.0000 C    0  0  0  0  0  0  0  0  0  0  0  0
    5.9970  -15.4726    0.0000 C    0  0  0  0  0  0  0  0  0  0  0  0
    5.3320  -16.6244    0.0000 C    0  0  0  0  0  0  0  0  0  0  0  0
    6.4838  -17.2894    0.0000 F    0  0  0  0  0  0  0  0  0  0  0  0
    4.1802  -15.9594    0.0000 F    0  0  0  0  0  0  0  0  0  0  0  0
    4.6670  -17.7762    0.0000 F    0  0  0  0  0  0  0  0  0  0  0  0
    7.3270  -10.8653    0.0000 C    0  0  0  0  0  0  0  0  0  0  0  0
    5.9970  -10.8653    0.0000 C    0  0  0  0  0  0  0  0  0  0  0  0
    7.9920   -9.7135    0.0000 C    0  0  0  0  0  0  0  0  0  0  0  0
    5.3320   -9.7135    0.0000 C    0  0  0  0  0  0  0  0  0  0  0  0
    7.3270   -8.5617    0.0000 C    0  0  0  0  0  0  0  0  0  0  0  0
    5.9970   -8.5617    0.0000 C    0  0  0  0  0  0  0  0  0  0  0  0
    5.3320   -7.4099    0.0000 C    0  0  0  0  0  0  0  0  0  0  0  0
    4.1802   -8.0749    0.0000 F    0  0  0  0  0  0  0  0  0  0  0  0
    6.4838   -6.7449    0.0000 F    0  0  0  0  0  0  0  0  0  0  0  0
    4.6670   -6.2581    0.0000 F    0  0  0  0  0  0  0  0  0  0  0  0
   11.9820  -12.0171    0.0000 C    0  0  0  0  0  0  0  0  0  0  0  0
   13.3120  -12.0171    0.0000 C    0  0  0  0  0  0  0  0  0  0  0  0
   11.3170  -13.1690    0.0000 C    0  0  0  0  0  0  0  0  0  0  0  0
   13.9770  -13.1690    0.0000 C    0  0  0  0  0  0  0  0  0  0  0  0
   11.9820  -14.3208    0.0000 C    0  0  0  0  0  0  0  0  0  0  0  0
   13.3120  -14.3208    0.0000 C    0  0  0  0  0  0  0  0  0  0  0  0
   13.9770  -15.4726    0.0000 C    0  0  0  0  0  0  0  0  0  0  0  0
   15.1288  -14.8076    0.0000 F    0  0  0  0  0  0  0  0  0  0  0  0
   12.8252  -16.1376    0.0000 F    0  0  0  0  0  0  0  0  0  0  0  0
   14.6420  -16.6244    0.0000 F    0  0  0  0  0  0  0  0  0  0  0  0
   11.9820   -9.7135    0.0000 C    0  0  0  0  0  0  0  0  0  0  0  0
   11.3170   -8.5617    0.0000 C    0  0  0  0  0  0  0  0  0  0  0  0
   13.3120   -9.7135    0.0000 C    0  0  0  0  0  0  0  0  0  0  0  0
   11.9820   -7.4099    0.0000 C    0  0  0  0  0  0  0  0  0  0  0  0
   13.9770   -8.5617    0.0000 C    0  0  0  0  0  0  0  0  0  0  0  0
   13.3120   -7.4099    0.0000 C    0  0  0  0  0  0  0  0  0  0  0  0
   13.9770   -6.2581    0.0000 C    0  0  0  0  0  0  0  0  0  0  0  0
   12.8252   -5.5931    0.0000 F    0  0  0  0  0  0  0  0  0  0  0  0
   15.1288   -6.9231    0.0000 F    0  0  0  0  0  0  0  0  0  0  0  0
   14.6420   -5.1063    0.0000 F    0  0  0  0  0  0  0  0  0  0  0  0
   11.3170  -10.8653    0.0000 P    0  0  0  0  0  0  0  0  0  0  0  0
    9.9870  -10.8653    0.0000 C    0  0  0  0  0  0  0  0  0  0  0  0
    9.3220  -12.0171    0.0000 C    0  0  0  0  0  0  0  0  0  0  0  0
    7.9920  -12.0171    0.0000 P    0  0  0  0  0  0  0  0  0  0  0  0
   14.8864  -10.8804    0.0000 Rh   0  3  0  0  0  0  0  0  0  0  0  0
   31.3752  -12.5148    0.0000 Cl   0  5  0  0  0  0  0  0  0  0  0  0
  1  2  1  0  0  0  0
  1  3  2  0  0  0  0
  2  4  2  0  0  0  0
  3  5  1  0  0  0  0
  4  6  1  0  0  0  0
  5  6  2  0  0  0  0
  6  7  1  0  0  0  0
  7  8  1  0  0  0  0
  7  9  1  0  0  0  0
  7 10  1  0  0  0  0
 11 12  1  0  0  0  0
 11 13  2  0  0  0  0
 12 14  2  0  0  0  0
 13 15  1  0  0  0  0
 14 16  1  0  0  0  0
 15 16  2  0  0  0  0
 16 17  1  0  0  0  0
 17 18  1  0  0  0  0
 17 19  1  0  0  0  0
 17 20  1  0  0  0  0
 21 22  1  0  0  0  0
 21 23  2  0  0  0  0
 22 24  2  0  0  0  0
 23 25  1  0  0  0  0
 24 26  1  0  0  0  0
 25 26  2  0  0  0  0
 26 27  1  0  0  0  0
 27 28  1  0  0  0  0
 27 29  1  0  0  0  0
 27 30  1  0  0  0  0
 31 32  1  0  0  0  0
 31 33  2  0  0  0  0
 32 34  2  0  0  0  0
 33 35  1  0  0  0  0
 34 36  1  0  0  0  0
 35 36  2  0  0  0  0
 36 37  1  0  0  0  0
 37 38  1  0  0  0  0
 37 39  1  0  0  0  0
 37 40  1  0  0  0  0
 31 41  1  0  0  0  0
 21 41  1  0  0  0  0
 41 42  1  0  0  0  0
 42 43  1  0  0  0  0
 43 44  1  0  0  0  0
 11 44  1  0  0  0  0
  1 44  1  0  0  0  0
 45 46  1  0  0  0  0
 45 47  2  0  0  0  0
 46 48  2  0  0  0  0
 47 49  1  0  0  0  0
 48 50  1  0  0  0  0
 49 50  2  0  0  0  0
 50 51  1  0  0  0  0
 51 52  1  0  0  0  0
 51 53  1  0  0  0  0
 51 54  1  0  0  0  0
 55 56  1  0  0  0  0
 55 57  2  0  0  0  0
 56 58  2  0  0  0  0
 57 59  1  0  0  0  0
 58 60  1  0  0  0  0
 59 60  2  0  0  0  0
 60 61  1  0  0  0  0
 61 62  1  0  0  0  0
 61 63  1  0  0  0  0
 61 64  1  0  0  0  0
 65 66  1  0  0  0  0
 65 67  2  0  0  0  0
 66 68  2  0  0  0  0
 67 69  1  0  0  0  0
 68 70  1  0  0  0  0
 69 70  2  0  0  0  0
 70 71  1  0  0  0  0
 71 72  1  0  0  0  0
 71 73  1  0  0  0  0
 71 74  1  0  0  0  0
 75 76  1  0  0  0  0
 75 77  2  0  0  0  0
 76 78  2  0  0  0  0
 77 79  1  0  0  0  0
 78 80  1  0  0  0  0
 79 80  2  0  0  0  0
 80 81  1  0  0  0  0
 81 82  1  0  0  0  0
 81 83  1  0  0  0  0
 81 84  1  0  0  0  0
 75 85  1  0  0  0  0
 65 85  1  0  0  0  0
 85 86  1  0  0  0  0
 86 87  1  0  0  0  0
 87 88  1  0  0  0  0
 55 88  1  0  0  0  0
 45 88  1  0  0  0  0
 85 89  1  0  0  0  0
 88 89  1  0  0  0  0
 44 89  1  0  0  0  0
 41 89  1  0  0  0  0
M  END
> <NMREDATA_VERSION>
1.1

> <NMREDATA_LEVEL>
0

> <NMREDATA_SOLVENT>
acetone

> <NMREDATA_TEMPERATURE>
298

> <NMREDATA_FORMULA>
C60H45ClF24P4Rh

> <NMREDATA_SMILES>
FC(c1ccc(cc1)P1(CCP([Rh]21P(CCP2(c1ccc(cc1)C(F)(F)F)c1ccc(cc1)C(F)(F)F)(c1ccc(cc1)C(F)(F)F)c1ccc(cc1)C(F)(F)F)(c1ccc(cc1)C(F)(F)F)c1ccc(cc1)C(F)(F)F)c1ccc(cc1)C(F)(F)F)(F)F.Cl

> <NMREDATA_ASSIGNMENT>
Rh89, -1179.00, 89

> <NMREDATA_1D_103Rh>
-1179.00, L=Rh89

$$$$
