
  ACD/LABS03122417142D

 22 23  0  0  0  0  0  0  0  0  1 V2000
    4.8053   -9.7186    0.0000 C    0  0  0  0  0  0  0  0  0  0  0  0
    4.7893  -11.8338    0.0000 C    0  0  0  0  0  0  0  0  0  0  0  0
   12.3885   -6.6901    0.0000 C    0  0  0  0  0  0  0  0  0  0  0  0
    9.7266   -5.9930    0.0000 C    0  0  0  0  0  0  0  0  0  0  0  0
   13.6026   -8.7411    0.0000 C    0  0  0  0  0  0  0  0  0  0  0  0
   13.6026  -10.0711    0.0000 C    0  0  0  0  0  0  0  0  0  0  0  0
   12.4507   -8.0761    0.0000 C    0  0  0  0  0  0  0  0  0  0  0  0
   12.4507  -10.7361    0.0000 C    0  0  0  0  0  0  0  0  0  0  0  0
   11.2989   -8.7411    0.0000 C    0  0  0  0  0  0  0  0  0  0  0  0
   11.2989  -10.0711    0.0000 C    0  0  0  0  0  0  0  0  0  0  0  0
    7.8820  -12.5709    0.0000 C    0  0  0  0  0  0  0  0  0  0  0  0
    7.8820  -13.9009    0.0000 C    0  0  0  0  0  0  0  0  0  0  0  0
    6.7301  -11.9059    0.0000 C    0  0  0  0  0  0  0  0  0  0  0  0
    6.7301  -14.5659    0.0000 C    0  0  0  0  0  0  0  0  0  0  0  0
    5.5783  -12.5709    0.0000 C    0  0  0  0  0  0  0  0  0  0  0  0
    5.5783  -13.9009    0.0000 C    0  0  0  0  0  0  0  0  0  0  0  0
    7.8839   -9.4382    0.0000 Rh   0  0  0  0  0  0  0  0  0  0  0  0
    9.6305   -8.3486    0.0000 P    0  0  0  0  0  0  0  0  0  0  0  0
    6.8102  -10.6560    0.0000 P    0  0  0  0  0  0  0  0  0  0  0  0
    7.0346   -7.7396    0.0000 I    0  0  0  0  0  0  0  0  0  0  0  0
    9.5183  -11.2169    0.0000 C    0  0  0  0  0  0  0  0  0  0  0  0
   10.3035  -12.5469    0.0000 O    0  0  0  0  0  0  0  0  0  0  0  0
  5  6  1  0  0  0  0
  5  7  2  0  0  0  0
  6  8  2  0  0  0  0
  7  9  1  0  0  0  0
  8 10  1  0  0  0  0
  9 10  2  0  0  0  0
 11 12  1  0  0  0  0
 11 13  2  0  0  0  0
 12 14  2  0  0  0  0
 13 15  1  0  0  0  0
 14 16  1  0  0  0  0
 15 16  2  0  0  0  0
 17 18  1  0  0  0  0
 17 19  1  0  0  0  0
 17 20  1  0  0  0  0
 17 21  1  0  0  0  0
 21 22  3  0  0  0  0
 13 19  1  0  0  0  0
  9 18  1  0  0  0  0
  4 18  1  0  0  0  0
  3 18  1  0  0  0  0
  2 19  1  0  0  0  0
  1 19  1  0  0  0  0
M  END
> <NMREDATA_VERSION>
1.1

> <NMREDATA_LEVEL>
0

> <NMREDATA_SOLVENT>
C6D6

> <NMREDATA_TEMPERATURE>
297

> <NMREDATA_FORMULA>
C17H24IOP2Rh

> <NMREDATA_SMILES>
[O]#C[Rh](P(c1ccccc1)(C)C)(P(c1ccccc1)(C)C)I

> <NMREDATA_ASSIGNMENT>
Rh17, -524.00, 17

> <NMREDATA_1D_103Rh>
-524.00, L=Rh17

$$$$
