
  ACD/LABS03092411172D

 46 51  0  0  0  0  0  0  0  0  1 V2000
   13.3777  -10.2884    0.0000 Rh   0  0  0  0  0  0  0  0  0  0  0  0
   12.1186   -9.8795    0.0000 H    0  0  0  0  0  0  0  0  0  0  0  0
   14.6350   -9.8792    0.0000 C    0  0  0  0  0  0  0  0  0  0  0  0
   15.8884   -9.4622    0.0000 O    0  0  0  0  0  0  0  0  0  0  0  0
   12.4290  -11.2146    0.0000 C    0  0  0  0  0  0  0  0  0  0  0  0
   11.4633  -12.1299    0.0000 O    0  0  0  0  0  0  0  0  0  0  0  0
   13.3774   -8.9584    0.0000 O    0  0  0  0  0  0  0  0  0  0  0  0
   12.2257   -8.2932    0.0000 C    0  0  0  0  0  0  0  0  0  0  0  0
   12.2254   -6.9632    0.0000 C    0  0  0  0  0  0  0  0  0  0  0  0
   11.0748   -8.9577    0.0000 C    0  0  0  0  0  0  0  0  0  0  0  0
   11.0735   -6.2975    0.0000 C    0  0  0  0  0  0  0  0  0  0  0  0
    9.9232   -8.2924    0.0000 C    0  0  0  0  0  0  0  0  0  0  0  0
    9.9226   -6.9620    0.0000 C    0  0  0  0  0  0  0  0  0  0  0  0
   13.2380   -6.1125    0.0000 P    0  0  0  0  0  0  0  0  0  0  0  0
   16.7553   -6.1789    0.0000 C    0  0  0  0  0  0  0  0  0  0  0  0
   15.5090   -5.7221    0.0000 C    0  0  0  0  0  0  0  0  0  0  0  0
   16.9810   -7.4917    0.0000 C    0  0  0  0  0  0  0  0  0  0  0  0
   14.4885   -6.5775    0.0000 C    0  0  0  0  0  0  0  0  0  0  0  0
   15.9636   -8.3350    0.0000 C    0  0  0  0  0  0  0  0  0  0  0  0
   14.7099   -7.8820    0.0000 C    0  0  0  0  0  0  0  0  0  0  0  0
   12.5499   -2.1918    0.0000 C    0  0  0  0  0  0  0  0  0  0  0  0
   13.8038   -2.6442    0.0000 C    0  0  0  0  0  0  0  0  0  0  0  0
   11.5372   -3.0421    0.0000 C    0  0  0  0  0  0  0  0  0  0  0  0
   14.0295   -3.9570    0.0000 C    0  0  0  0  0  0  0  0  0  0  0  0
   11.7628   -4.3549    0.0000 C    0  0  0  0  0  0  0  0  0  0  0  0
   13.0087   -4.8119    0.0000 C    0  0  0  0  0  0  0  0  0  0  0  0
   14.1562  -11.3528    0.0000 O    0  0  0  0  0  0  0  0  0  0  0  0
   13.6098  -12.5683    0.0000 C    0  0  0  0  0  0  0  0  0  0  0  0
   14.3970  -13.6489    0.0000 C    0  0  0  0  0  0  0  0  0  0  0  0
   12.2881  -12.7076    0.0000 C    0  0  0  0  0  0  0  0  0  0  0  0
   13.8582  -14.8601    0.0000 C    0  0  0  0  0  0  0  0  0  0  0  0
   11.7493  -13.9187    0.0000 C    0  0  0  0  0  0  0  0  0  0  0  0
   12.5370  -14.9991    0.0000 C    0  0  0  0  0  0  0  0  0  0  0  0
   15.7240  -13.7318    0.0000 P    0  0  0  0  0  0  0  0  0  0  0  0
   18.5195  -11.6270    0.0000 C    0  0  0  0  0  0  0  0  0  0  0  0
   17.7834  -12.7270    0.0000 C    0  0  0  0  0  0  0  0  0  0  0  0
   17.9390  -10.4271    0.0000 C    0  0  0  0  0  0  0  0  0  0  0  0
   16.4521  -12.6365    0.0000 C    0  0  0  0  0  0  0  0  0  0  0  0
   16.6121  -10.3442    0.0000 C    0  0  0  0  0  0  0  0  0  0  0  0
   15.8684  -11.4485    0.0000 C    0  0  0  0  0  0  0  0  0  0  0  0
   17.4754  -17.3148    0.0000 C    0  0  0  0  0  0  0  0  0  0  0  0
   16.1441  -17.2243    0.0000 C    0  0  0  0  0  0  0  0  0  0  0  0
   18.2111  -16.2151    0.0000 C    0  0  0  0  0  0  0  0  0  0  0  0
   15.5683  -16.0317    0.0000 C    0  0  0  0  0  0  0  0  0  0  0  0
   17.6230  -15.0195    0.0000 C    0  0  0  0  0  0  0  0  0  0  0  0
   16.3045  -14.9318    0.0000 C    0  0  0  0  0  0  0  0  0  0  0  0
  1  2  1  0  0  0  0
  1  3  1  0  0  0  0
  3  4  3  0  0  0  0
  1  5  1  0  0  0  0
  5  6  3  0  0  0  0
  1  7  1  0  0  0  0
  8  9  1  0  0  0  0
  8 10  2  0  0  0  0
  9 11  2  0  0  0  0
 10 12  1  0  0  0  0
 11 13  1  0  0  0  0
 12 13  2  0  0  0  0
  7  8  1  0  0  0  0
  9 14  1  0  0  0  0
 15 16  1  0  0  0  0
 15 17  2  0  0  0  0
 16 18  2  0  0  0  0
 17 19  1  0  0  0  0
 18 20  1  0  0  0  0
 19 20  2  0  0  0  0
 14 18  1  0  0  0  0
 21 22  1  0  0  0  0
 21 23  2  0  0  0  0
 22 24  2  0  0  0  0
 23 25  1  0  0  0  0
 24 26  1  0  0  0  0
 25 26  2  0  0  0  0
 14 26  1  0  0  0  0
 28 29  1  0  0  0  0
 28 30  2  0  0  0  0
 29 31  2  0  0  0  0
 30 32  1  0  0  0  0
 31 33  1  0  0  0  0
 32 33  2  0  0  0  0
 27 28  1  0  0  0  0
 29 34  1  0  0  0  0
 35 36  1  0  0  0  0
 35 37  2  0  0  0  0
 36 38  2  0  0  0  0
 37 39  1  0  0  0  0
 38 40  1  0  0  0  0
 39 40  2  0  0  0  0
 34 38  1  0  0  0  0
 41 42  1  0  0  0  0
 41 43  2  0  0  0  0
 42 44  2  0  0  0  0
 43 45  1  0  0  0  0
 44 46  1  0  0  0  0
 45 46  2  0  0  0  0
 34 46  1  0  0  0  0
  1 27  1  0  0  0  0
M  END
> <NMREDATA_VERSION>
1.1

> <NMREDATA_LEVEL>
0

> <NMREDATA_SOLVENT>
C6D6

> <NMREDATA_TEMPERATURE>
298

> <NMREDATA_FORMULA>
C38H29O4P2Rh

> <NMREDATA_SMILES>
[O]#C[RhH](Oc1ccccc1P(c1ccccc1)c1ccccc1)(Oc1ccccc1P(c1ccccc1)c1ccccc1)C#[O]

> <NMREDATA_ASSIGNMENT>
Rh1, -829.00, 1

> <NMREDATA_1D_103Rh>
-829.00, L=Rh1

$$$$
