
  ACD/LABS04022409532D

 65 71  0  0  0  0  0  0  0  0  2 V2000
   14.4863   -4.7185    0.0000 C    0  0  0  0  0  0  0  0  0  0  0  0
   13.6307   -3.6977    0.0000 C    0  0  0  0  0  0  0  0  0  0  0  0
   14.0289   -5.9650    0.0000 C    0  0  0  0  0  0  0  0  0  0  0  0
   12.3259   -3.9189    0.0000 C    0  0  0  0  0  0  0  0  0  0  0  0
   12.7165   -6.1905    0.0000 C    0  0  0  0  0  0  0  0  0  0  0  0
   11.8610   -5.1700    0.0000 C    0  0  0  0  0  0  0  0  0  0  0  0
   16.2518  -10.7187    0.0000 C    0  0  0  0  0  0  0  0  0  0  0  0
   14.9360  -10.4961    0.0000 C    0  0  0  0  0  0  0  0  0  0  0  0
   17.0957   -9.6993    0.0000 C    0  0  0  0  0  0  0  0  0  0  0  0
   14.4799   -9.2449    0.0000 C    0  0  0  0  0  0  0  0  0  0  0  0
   16.6440   -8.4558    0.0000 C    0  0  0  0  0  0  0  0  0  0  0  0
   15.3315   -8.2211    0.0000 C    0  0  0  0  0  0  0  0  0  0  0  0
   16.0275   -6.3255    0.0000 Rh   0  1  0  0  0  0  0  0  0  0  0  0
   14.8843   -6.9855    0.0000 P    0  0  0  0  0  0  0  0  0  0  0  0
   13.7330   -7.6503    0.0000 C    0  0  0  0  0  0  0  0  0  0  0  0
   12.5813   -6.9850    0.0000 C    0  0  0  0  0  0  0  0  0  0  0  0
   11.4302   -7.6496    0.0000 O    0  0  0  0  0  0  0  0  0  0  0  0
   10.2784   -6.9840    0.0000 C    0  0  0  0  0  0  0  0  0  0  0  0
   18.5282   -7.7674    0.0000 P    0  0  0  0  0  0  0  0  0  0  0  0
   19.6799   -8.4326    0.0000 C    0  0  0  0  0  0  0  0  0  0  0  0
   19.6802   -9.7626    0.0000 C    0  0  0  0  0  0  0  0  0  0  0  0
   20.8309   -7.7680    0.0000 C    0  0  0  0  0  0  0  0  0  0  0  0
   20.8276  -10.4205    0.0000 C    0  0  0  0  0  0  0  0  0  0  0  0
   21.9826   -8.4333    0.0000 C    0  0  0  0  0  0  0  0  0  0  0  0
   21.9787   -9.7560    0.0000 C    0  0  0  0  0  0  0  0  0  0  0  0
   19.1935   -6.6157    0.0000 C    0  0  0  0  0  0  0  0  0  0  0  0
   20.5238   -6.6152    0.0000 C    0  0  0  0  0  0  0  0  0  0  0  0
   18.5333   -5.4722    0.0000 C    0  0  0  0  0  0  0  0  0  0  0  0
   21.1890   -5.4636    0.0000 C    0  0  0  0  0  0  0  0  0  0  0  0
   19.1990   -4.3207    0.0000 C    0  0  0  0  0  0  0  0  0  0  0  0
   20.5289   -4.3201    0.0000 C    0  0  0  0  0  0  0  0  0  0  0  0
   17.8625   -8.9189    0.0000 C    0  0  0  0  0  0  0  0  0  0  0  0
   18.5272  -10.0702    0.0000 C    0  0  0  0  0  0  0  0  0  0  0  0
   17.8775  -11.2130    0.0000 O    0  0  0  0  0  0  0  0  0  0  0  0
   18.5422  -12.3643    0.0000 C    0  0  0  0  0  0  0  0  0  0  0  0
   16.0272   -4.9955    0.0000 S    0  0  0  0  0  0  0  0  0  0  0  0
   17.2865   -5.4042    0.0000 O    0  0  0  0  0  0  0  0  0  0  0  0
   14.8573   -5.6093    0.0000 O    0  5  0  0  0  0  0  0  0  0  0  0
   16.8084   -3.9202    0.0000 O    0  5  0  0  0  0  0  0  0  0  0  0
   15.2398   -3.9150    0.0000 O    0  0  0  0  0  0  0  0  0  0  0  0
   31.1508  -10.8623    0.0000 C    0  0  0  0  0  0  0  0  0  0  0  0
   30.4858  -12.0142    0.0000 C    0  0  0  0  0  0  0  0  0  0  0  0
   30.4858   -9.7105    0.0000 C    0  0  0  0  0  0  0  0  0  0  0  0
   29.1558  -12.0142    0.0000 C    0  0  0  0  0  0  0  0  0  0  0  0
   29.1558   -9.7105    0.0000 C    0  0  0  0  0  0  0  0  0  0  0  0
   28.4908  -10.8623    0.0000 C    0  0  0  0  0  0  0  0  0  0  0  0
   28.4908   -8.5587    0.0000 B    0  5  0  0  0  0  0  0  0  0  0  0
   29.6427   -7.8937    0.0000 C    0  0  0  0  0  0  0  0  0  0  0  0
   29.6427   -6.5637    0.0000 C    0  0  0  0  0  0  0  0  0  0  0  0
   30.7945   -8.5587    0.0000 C    0  0  0  0  0  0  0  0  0  0  0  0
   30.7945   -5.8987    0.0000 C    0  0  0  0  0  0  0  0  0  0  0  0
   31.9463   -7.8937    0.0000 C    0  0  0  0  0  0  0  0  0  0  0  0
   31.9463   -6.5637    0.0000 C    0  0  0  0  0  0  0  0  0  0  0  0
   27.3390   -9.2237    0.0000 C    0  0  0  0  0  0  0  0  0  0  0  0
   27.3390  -10.5537    0.0000 C    0  0  0  0  0  0  0  0  0  0  0  0
   26.1872   -8.5587    0.0000 C    0  0  0  0  0  0  0  0  0  0  0  0
   26.1872  -11.2187    0.0000 C    0  0  0  0  0  0  0  0  0  0  0  0
   25.0354   -9.2237    0.0000 C    0  0  0  0  0  0  0  0  0  0  0  0
   25.0354  -10.5537    0.0000 C    0  0  0  0  0  0  0  0  0  0  0  0
   27.8258   -7.4069    0.0000 C    0  0  0  0  0  0  0  0  0  0  0  0
   26.4958   -7.4069    0.0000 C    0  0  0  0  0  0  0  0  0  0  0  0
   28.4908   -6.2551    0.0000 C    0  0  0  0  0  0  0  0  0  0  0  0
   25.8308   -6.2551    0.0000 C    0  0  0  0  0  0  0  0  0  0  0  0
   27.8258   -5.1033    0.0000 C    0  0  0  0  0  0  0  0  0  0  0  0
   26.4958   -5.1033    0.0000 C    0  0  0  0  0  0  0  0  0  0  0  0
  1  2  1  0  0  0  0
  1  3  1  0  0  0  0
  2  4  1  0  0  0  0
  3  5  1  0  0  0  0
  4  6  1  0  0  0  0
  5  6  1  0  0  0  0
  7  8  1  0  0  0  0
  7  9  1  0  0  0  0
  8 10  1  0  0  0  0
  9 11  1  0  0  0  0
 10 12  1  0  0  0  0
 11 12  1  0  0  0  0
 13 14  1  0  0  0  0
 12 14  1  0  0  0  0
  3 14  1  0  0  0  0
 14 15  1  0  0  0  0
 15 16  1  0  0  0  0
 16 17  1  0  0  0  0
 17 18  1  0  0  0  0
 13 19  1  0  0  0  0
 20 21  1  0  0  0  0
 20 22  1  0  0  0  0
 21 23  1  0  0  0  0
 22 24  1  0  0  0  0
 23 25  1  0  0  0  0
 24 25  1  0  0  0  0
 19 20  1  0  0  0  0
 26 27  1  0  0  0  0
 26 28  1  0  0  0  0
 27 29  1  0  0  0  0
 28 30  1  0  0  0  0
 29 31  1  0  0  0  0
 30 31  1  0  0  0  0
 19 26  1  0  0  0  0
 19 32  1  0  0  0  0
 32 33  1  0  0  0  0
 33 34  1  0  0  0  0
 34 35  1  0  0  0  0
 13 36  1  0  0  0  0
 36 37  2  0  0  0  0
 36 38  1  0  0  0  0
 36 39  1  0  0  0  0
 36 40  2  0  0  0  0
 41 42  1  0  0  0  0
 41 43  2  0  0  0  0
 42 44  2  0  0  0  0
 43 45  1  0  0  0  0
 44 46  1  0  0  0  0
 45 46  2  0  0  0  0
 48 49  1  0  0  0  0
 48 50  2  0  0  0  0
 49 51  2  0  0  0  0
 50 52  1  0  0  0  0
 51 53  1  0  0  0  0
 52 53  2  0  0  0  0
 47 48  1  0  0  0  0
 54 55  1  0  0  0  0
 54 56  2  0  0  0  0
 55 57  2  0  0  0  0
 56 58  1  0  0  0  0
 57 59  1  0  0  0  0
 58 59  2  0  0  0  0
 47 54  1  0  0  0  0
 60 61  1  0  0  0  0
 60 62  2  0  0  0  0
 61 63  2  0  0  0  0
 62 64  1  0  0  0  0
 63 65  1  0  0  0  0
 64 65  2  0  0  0  0
 47 60  1  0  0  0  0
 45 47  1  0  0  0  0
M  END
> <NMREDATA_VERSION>
1.1

> <NMREDATA_LEVEL>
0

> <NMREDATA_SOLVENT>
CD2Cl2

> <NMREDATA_TEMPERATURE>
243

> <NMREDATA_FORMULA>
C54H82BO6P2RhS

> <NMREDATA_SMILES>
c1ccc(cc1)[B](c1ccccc1)(c1ccccc1)c1ccccc1.COCCP([Rh]([S](=O)(=O)(O)O)P(C1CCCCC1)(C1CCCCC1)CCOC)(C1CCCCC1)C1CCCCC1

> <NMREDATA_ASSIGNMENT>
Rh13, 4063.00, 13

> <NMREDATA_1D_103Rh>
4063.00, L=Rh13

$$$$
