
  ACD/LABS04012415102D

 71 80  0  0  0  0  0  0  0  0  1 V2000
   11.1344  -16.8636    0.0000 C    0  0  0  0  0  0  0  0  0  0  0  0
   11.3665  -18.1649    0.0000 C    0  0  0  0  0  0  0  0  0  0  0  0
   12.1480  -15.9948    0.0000 C    0  0  0  0  0  0  0  0  0  0  0  0
   12.6181  -18.6213    0.0000 C    0  0  0  0  0  0  0  0  0  0  0  0
   13.4001  -16.4514    0.0000 C    0  0  0  0  0  0  0  0  0  0  0  0
   13.6394  -17.7568    0.0000 C    0  0  0  0  0  0  0  0  0  0  0  0
   10.6033  -14.9286    0.0000 C    0  0  0  0  0  0  0  0  0  0  0  0
    9.7471  -13.9121    0.0000 C    0  0  0  0  0  0  0  0  0  0  0  0
   10.1588  -16.1775    0.0000 C    0  0  0  0  0  0  0  0  0  0  0  0
    8.4419  -14.1521    0.0000 C    0  0  0  0  0  0  0  0  0  0  0  0
    8.8457  -16.4124    0.0000 C    0  0  0  0  0  0  0  0  0  0  0  0
    7.9972  -15.4003    0.0000 C    0  0  0  0  0  0  0  0  0  0  0  0
   13.2218  -14.4545    0.0000 C    0  0  0  0  0  0  0  0  0  0  0  0
   14.0785  -15.4713    0.0000 C    0  0  0  0  0  0  0  0  0  0  0  0
   13.6785  -13.2024    0.0000 C    0  0  0  0  0  0  0  0  0  0  0  0
   15.3919  -15.2360    0.0000 C    0  0  0  0  0  0  0  0  0  0  0  0
   14.9795  -12.9708    0.0000 C    0  0  0  0  0  0  0  0  0  0  0  0
   15.8406  -13.9799    0.0000 C    0  0  0  0  0  0  0  0  0  0  0  0
   17.0159   -4.1236    0.0000 C    0  0  0  0  0  0  0  0  0  0  0  0
   15.8635   -4.7895    0.0000 C    0  0  0  0  0  0  0  0  0  0  0  0
   18.1677   -4.7886    0.0000 C    0  0  0  0  0  0  0  0  0  0  0  0
   15.8633   -6.1200    0.0000 C    0  0  0  0  0  0  0  0  0  0  0  0
   18.1671   -6.1195    0.0000 C    0  0  0  0  0  0  0  0  0  0  0  0
   17.0151   -6.7850    0.0000 C    0  0  0  0  0  0  0  0  0  0  0  0
   13.1686   -7.4724    0.0000 C    0  0  0  0  0  0  0  0  0  0  0  0
   13.6208   -6.2279    0.0000 C    0  0  0  0  0  0  0  0  0  0  0  0
   14.0171   -8.4845    0.0000 C    0  0  0  0  0  0  0  0  0  0  0  0
   14.9180   -5.9839    0.0000 C    0  0  0  0  0  0  0  0  0  0  0  0
   15.3305   -8.2491    0.0000 C    0  0  0  0  0  0  0  0  0  0  0  0
   15.7747   -7.0007    0.0000 C    0  0  0  0  0  0  0  0  0  0  0  0
   10.8514   -8.7546    0.0000 Rh   0  0  0  0  0  0  0  0  0  0  0  0
   10.6163   -7.4419    0.0000 O    0  0  0  0  0  0  0  0  0  0  0  0
   11.6284   -6.5934    0.0000 O    0  0  0  0  0  0  0  0  0  0  0  0
   13.5731   -9.7324    0.0000 P    0  0  0  0  0  5  0  0  0  0  0  0
   12.9154  -10.8884    0.0000 C    0  0  0  0  0  0  0  0  0  0  0  0
   13.3775  -12.1276    0.0000 C    0  0  0  0  0  0  0  0  0  0  0  0
   11.6106  -10.6676    0.0000 C    0  0  0  0  0  0  0  0  0  0  0  0
   12.5291  -13.1536    0.0000 C    0  0  0  0  0  0  0  0  0  0  0  0
   10.7626  -11.6931    0.0000 C    0  0  0  0  0  0  0  0  0  0  0  0
   11.2192  -12.9395    0.0000 C    0  0  0  0  0  0  0  0  0  0  0  0
   14.8215  -10.1766    0.0000 C    0  0  0  0  0  0  0  0  0  0  0  0
   15.8336   -9.3281    0.0000 C    0  0  0  0  0  0  0  0  0  0  0  0
   15.0564  -11.4897    0.0000 C    0  0  0  0  0  0  0  0  0  0  0  0
   17.0853   -9.7845    0.0000 C    0  0  0  0  0  0  0  0  0  0  0  0
   16.3125  -11.9384    0.0000 C    0  0  0  0  0  0  0  0  0  0  0  0
   17.3246  -11.0899    0.0000 C    0  0  0  0  0  0  0  0  0  0  0  0
   14.7199   -4.1293    0.0000 P    0  0  0  0  0  0  0  0  0  0  0  0
   11.9164  -14.6938    0.0000 P    0  0  0  0  0  0  0  0  0  0  0  0
   12.4168   -1.4683    0.0000 C    0  0  0  0  0  0  0  0  0  0  0  0
   13.5686   -2.1333    0.0000 C    0  0  0  0  0  0  0  0  0  0  0  0
   11.2645   -2.1343    0.0000 C    0  0  0  0  0  0  0  0  0  0  0  0
   13.5681   -3.4643    0.0000 C    0  0  0  0  0  0  0  0  0  0  0  0
   11.2642   -3.4647    0.0000 C    0  0  0  0  0  0  0  0  0  0  0  0
   12.4160   -4.1297    0.0000 C    0  0  0  0  0  0  0  0  0  0  0  0
   15.3840   -0.6733    0.0000 C    0  0  0  0  0  0  0  0  0  0  0  0
   14.7190   -1.8251    0.0000 C    0  0  0  0  0  0  0  0  0  0  0  0
   16.7152   -0.6733    0.0000 C    0  0  0  0  0  0  0  0  0  0  0  0
   15.3849   -2.9775    0.0000 C    0  0  0  0  0  0  0  0  0  0  0  0
   17.3722   -1.8212    0.0000 C    0  0  0  0  0  0  0  0  0  0  0  0
   16.7072   -2.9730    0.0000 C    0  0  0  0  0  0  0  0  0  0  0  0
    9.5997   -8.2982    0.0000 C    0  0  0  0  0  0  0  0  0  0  0  0
    9.3676   -6.9969    0.0000 N    0  0  0  0  0  0  0  0  0  0  0  0
    8.5906   -9.1593    0.0000 C    0  0  0  0  0  0  0  0  0  0  0  0
    8.1160   -6.5405    0.0000 C    0  0  0  0  0  0  0  0  0  0  0  0
    7.3345   -8.7107    0.0000 C    0  0  0  0  0  0  0  0  0  0  0  0
    7.0991   -7.3973    0.0000 C    0  0  0  0  0  0  0  0  0  0  0  0
    9.7067   -9.4250    0.0000 N    0  0  0  0  0  0  0  0  0  0  0  0
    9.7150  -10.7549    0.0000 C    0  0  0  0  0  0  0  0  0  0  0  0
    9.7233  -12.0849    0.0000 N    0  0  0  0  0  0  0  0  0  0  0  0
    8.5508   -8.7671    0.0000 C    0  0  0  0  0  0  0  0  0  0  0  0
    7.3949   -8.1093    0.0000 N    0  0  0  0  0  0  0  0  0  0  0  0
  1  2  1  0  0  0  0
  1  3  2  0  0  0  0
  2  4  2  0  0  0  0
  3  5  1  0  0  0  0
  4  6  1  0  0  0  0
  5  6  2  0  0  0  0
  7  8  1  0  0  0  0
  7  9  2  0  0  0  0
  8 10  2  0  0  0  0
  9 11  1  0  0  0  0
 10 12  1  0  0  0  0
 11 12  2  0  0  0  0
 13 14  1  0  0  0  0
 13 15  2  0  0  0  0
 14 16  2  0  0  0  0
 15 17  1  0  0  0  0
 16 18  1  0  0  0  0
 17 18  2  0  0  0  0
 19 20  1  0  0  0  0
 19 21  2  0  0  0  0
 20 22  2  0  0  0  0
 21 23  1  0  0  0  0
 22 24  1  0  0  0  0
 23 24  2  0  0  0  0
 25 26  1  0  0  0  0
 25 27  2  0  0  0  0
 26 28  2  0  0  0  0
 27 29  1  0  0  0  0
 28 30  1  0  0  0  0
 29 30  2  0  0  0  0
 31 32  1  0  0  0  0
 32 33  2  0  0  0  0
 31 34  1  0  0  0  0
 35 36  1  0  0  0  0
 35 37  2  0  0  0  0
 36 38  2  0  0  0  0
 37 39  1  0  0  0  0
 38 40  1  0  0  0  0
 39 40  2  0  0  0  0
 34 35  1  0  0  0  0
 41 42  1  0  0  0  0
 41 43  2  0  0  0  0
 42 44  2  0  0  0  0
 43 45  1  0  0  0  0
 44 46  1  0  0  0  0
 45 46  2  0  0  0  0
 34 41  1  0  0  0  0
 27 34  1  0  0  0  0
 31 47  1  0  0  0  0
 31 48  1  0  0  0  0
 49 50  1  0  0  0  0
 49 51  2  0  0  0  0
 50 52  2  0  0  0  0
 51 53  1  0  0  0  0
 52 54  1  0  0  0  0
 53 54  2  0  0  0  0
 47 52  1  0  0  0  0
 55 56  1  0  0  0  0
 55 57  2  0  0  0  0
 56 58  2  0  0  0  0
 57 59  1  0  0  0  0
 58 60  1  0  0  0  0
 59 60  2  0  0  0  0
 47 58  1  0  0  0  0
 20 47  1  0  0  0  0
 13 48  1  0  0  0  0
  7 48  1  0  0  0  0
  3 48  1  0  0  0  0
 61 62  1  0  0  0  0
 61 63  2  0  0  0  0
 62 64  2  0  0  0  0
 63 65  1  0  0  0  0
 64 66  1  0  0  0  0
 65 66  2  0  0  0  0
 31 61  1  0  0  0  0
 31 67  1  0  0  0  0
 68 69  3  0  0  0  0
 67 68  1  0  0  0  0
 70 71  3  0  0  0  0
 67 70  1  0  0  0  0
M  END
> <NMREDATA_VERSION>
1.1

> <NMREDATA_LEVEL>
0

> <NMREDATA_SOLVENT>
DCCl3

> <NMREDATA_TEMPERATURE>
300

> <NMREDATA_FORMULA>
C61H52N4O2P3Rh

> <NMREDATA_SMILES>
N#CN([Rh](P(c1ccccc1)(c1ccccc1)c1ccccc1)(P(c1ccccc1)(c1ccccc1)c1ccccc1)(P(c1ccccc1)(c1ccccc1)c1ccccc1)(c1ccccn1)[O]=O)C#N

> <NMREDATA_ASSIGNMENT>
Rh31, 3261.00, 31

> <NMREDATA_1D_103Rh>
3261.00, L=Rh31

$$$$
