
  ACD/LABS03082409552D

 28 32  0  0  0  0  0  0  0  0  1 V2000
    8.1218  -11.9034    0.0000 C    0  0  0  0  0  0  0  0  0  0  0  0
    9.1985  -11.1227    0.0000 C    0  0  0  0  0  0  0  0  0  0  0  0
    8.5317  -13.1687    0.0000 N    0  0  0  0  0  0  0  0  0  0  0  0
   10.2738  -11.9053    0.0000 C    0  0  0  0  0  0  0  0  0  0  0  0
    9.8619  -13.1699    0.0000 N    0  0  0  0  0  0  0  0  0  0  0  0
   11.5391  -11.4954    0.0000 C    0  0  0  0  0  0  0  0  0  0  0  0
   11.8234   -8.6826    0.0000 C    0  0  0  0  0  0  0  0  0  0  0  0
   12.9001   -7.9018    0.0000 C    0  0  0  0  0  0  0  0  0  0  0  0
   12.2333   -9.9479    0.0000 N    0  0  0  0  0  0  0  0  0  0  0  0
   13.9754   -8.6845    0.0000 C    0  0  0  0  0  0  0  0  0  0  0  0
   13.5635   -9.9490    0.0000 N    0  0  0  0  0  0  0  0  0  0  0  0
   15.2406   -8.2745    0.0000 C    0  0  0  0  0  0  0  0  0  0  0  0
   15.5730  -11.7432    0.0000 C    0  0  0  0  0  0  0  0  0  0  0  0
   16.6497  -10.9624    0.0000 C    0  0  0  0  0  0  0  0  0  0  0  0
   15.9830  -13.0085    0.0000 N    0  0  0  0  0  0  0  0  0  0  0  0
   17.7250  -11.7451    0.0000 C    0  0  0  0  0  0  0  0  0  0  0  0
   17.3131  -13.0096    0.0000 N    0  0  0  0  0  0  0  0  0  0  0  0
   14.4217  -19.8539    0.0000 C    0  0  0  0  0  0  0  0  0  0  0  0
   14.4377  -18.3796    0.0000 C    0  0  0  0  0  0  0  0  0  0  0  0
   16.3766  -17.5784    0.0000 C    0  0  0  0  0  0  0  0  0  0  0  0
   17.7227  -18.1874    0.0000 C    0  0  0  0  0  0  0  0  0  0  0  0
   16.0081  -19.1168    0.0000 C    0  0  0  0  0  0  0  0  0  0  0  0
   17.4663  -19.8058    0.0000 C    0  0  0  0  0  0  0  0  0  0  0  0
   16.0882  -16.8093    0.0000 C    0  0  0  0  0  0  0  0  0  0  0  0
   16.3890  -15.6120    0.0000 Rh   0  0  0  0  0  0  0  0  0  0  0  0
   15.2229  -15.1107    0.0000 B    0  0  0  0  0  0  0  0  0  0  0  0
   12.2264  -15.3190    0.0000 C    0  0  0  0  0  0  0  0  0  0  0  0
   18.9903  -11.3351    0.0000 C    0  0  0  0  0  0  0  0  0  0  0  0
  1  2  2  0  0  0  0
  1  3  1  0  0  0  0
  2  4  1  0  0  0  0
  3  5  1  0  0  0  0
  4  5  2  0  0  0  0
  4  6  1  0  0  0  0
  7  8  2  0  0  0  0
  7  9  1  0  0  0  0
  8 10  1  0  0  0  0
  9 11  1  0  0  0  0
 10 11  2  0  0  0  0
 10 12  1  0  0  0  0
 13 14  2  0  0  0  0
 13 15  1  0  0  0  0
 14 16  1  0  0  0  0
 15 17  1  0  0  0  0
 16 17  2  0  0  0  0
 18 19  2  0  0  0  0
 19 20  1  0  0  0  0
 20 21  1  0  0  0  0
 18 22  1  0  0  0  0
 22 23  1  0  0  0  0
 23 21  2  0  0  0  0
 22 24  1  0  0  0  0
 20 24  1  0  0  0  0
 24 25  1  0  0  0  0
 25 26  1  0  0  0  0
 26 27  1  0  0  0  0
 15 26  1  0  0  0  0
 16 28  1  0  0  0  0
  9 26  1  0  0  0  0
  3 26  1  0  0  0  0
M  END
> <NMREDATA_VERSION>
1.1

> <NMREDATA_LEVEL>
0

> <NMREDATA_SOLVENT>
DCCl3

> <NMREDATA_TEMPERATURE>
298

> <NMREDATA_FORMULA>
C20H25BN6Rh

> <NMREDATA_SMILES>
Cc1ccn(n1)[B](n1ccc(n1)C)(n1ccc(n1)C)([Rh]C1C2C=CC1C=C2)C

> <NMREDATA_ASSIGNMENT>
Rh25, 1475.00, 25

> <NMREDATA_1D_103Rh>
1475.00, L=Rh25

$$$$
