
  ACD/LABS02222414122D

 14 14  0  0  0  0  0  0  0  0  1 V2000
   13.9036   -8.8610    0.0000 C    0  0  0  0  0  0  0  0  0  0  0  0
   15.1186   -8.3200    0.0000 C    0  0  0  0  0  0  0  0  0  0  0  0
   14.0426  -10.1837    0.0000 C    0  0  0  0  0  0  0  0  0  0  0  0
   16.0085   -9.3084    0.0000 C    0  0  0  0  0  0  0  0  0  0  0  0
   15.3435  -10.4602    0.0000 C    0  0  0  0  0  0  0  0  0  0  0  0
   16.4195  -11.2420    0.0000 Si   0  0  0  0  0  0  0  0  0  0  0  0
   15.2045  -11.7830    0.0000 Rh   0  0  0  0  0  0  0  0  0  0  0  0
   16.2805  -12.5647    0.0000 C    0  0  0  0  0  0  0  0  0  0  0  0
   13.9895  -12.3239    0.0000 C    0  0  0  0  0  0  0  0  0  0  0  0
   17.3565  -13.3465    0.0000 O    0  0  0  0  0  0  0  0  0  0  0  0
   12.7745  -12.8649    0.0000 O    0  0  0  0  0  0  0  0  0  0  0  0
   17.2013  -10.1660    0.0000 C    0  0  0  0  0  0  0  0  0  0  0  0
   15.6378  -12.3180    0.0000 C    0  0  0  0  0  0  0  0  0  0  0  0
   17.4955  -12.0238    0.0000 C    0  0  0  0  0  0  0  0  0  0  0  0
  1  2  1  0  0  0  0
  1  3  2  0  0  0  0
  2  4  2  0  0  0  0
  3  5  1  0  0  0  0
  4  5  1  0  0  0  0
  5  6  1  0  0  0  0
  5  7  1  0  0  0  0
  7  8  1  0  0  0  0
  7  9  1  0  0  0  0
  8 10  3  0  0  0  0
  9 11  3  0  0  0  0
  6 12  1  0  0  0  0
  6 13  1  0  0  0  0
  6 14  1  0  0  0  0
M  END
> <NMREDATA_VERSION>
1.1

> <NMREDATA_LEVEL>
0

> <NMREDATA_SOLVENT>
C6D6

> <NMREDATA_TEMPERATURE>
298

> <NMREDATA_FORMULA>
C10H13O2RhSi

> <NMREDATA_SMILES>
[O]#C[Rh](C1(C=CC=C1)[Si](C)(C)C)C#[O]

> <NMREDATA_ASSIGNMENT>
Rh7, -1321.00, 7

> <NMREDATA_1D_103Rh>
-1321.00, L=Rh7

$$$$
