LaurenceCarlton-2008_00178.mol
  ChemDraw08202412202D

 17 24  0  0  0  0  0  0  0  0999 V2000
   -1.2434    0.1285    0.0000 C    0  0  0  0  0  0  0  0  0  0  0  0
   -1.6459    0.8258    0.0000 C    0  0  0  0  0  0  0  0  0  0  0  0
   -1.2434    1.5229    0.0000 C    0  0  0  0  0  0  0  0  0  0  0  0
   -0.4184    1.5229    0.0000 C    0  0  0  0  0  0  0  0  0  0  0  0
   -0.4383    0.1285    0.0000 Rh   0  0  0  0  0  0  0  0  0  0  0  0
    0.3447   -0.4918    0.0000 C    0  0  0  0  0  0  0  0  0  0  0  0
    1.0984   -0.1562    0.0000 C    0  0  0  0  0  0  0  0  0  0  0  0
    0.4309   -1.3122    0.0000 C    0  0  0  0  0  0  0  0  0  0  0  0
    1.6504   -0.7693    0.0000 C    0  0  0  0  0  0  0  0  0  0  0  0
    1.2379   -1.4837    0.0000 C    0  0  0  0  0  0  0  0  0  0  0  0
   -1.6558    2.2374    0.0000 C    0  0  0  0  0  0  0  0  0  0  0  0
   -2.4709    0.8258    0.0000 C    0  0  0  0  0  0  0  0  0  0  0  0
    2.4709   -0.6830    0.0000 C    0  0  0  0  0  0  0  0  0  0  0  0
    1.5014    0.5636    0.0000 C    0  0  0  0  0  0  0  0  0  0  0  0
    1.5735   -2.2374    0.0000 C    0  0  0  0  0  0  0  0  0  0  0  0
   -0.0475   -1.9843    0.0000 C    0  0  0  0  0  0  0  0  0  0  0  0
   -0.3782   -0.8893    0.0000 C    0  0  0  0  0  0  0  0  0  0  0  0
  1  2  1  0  0
  2  3  1  0  0
  3  4  1  0  0
  1  5  1  0  0
  6  7  1  0  0
  6  8  1  0  0
  7  9  1  0  0
  8 10  1  0  0
  9 10  1  0  0
  2  5  1  0  0
  3  5  1  0  0
  4  5  1  0  0
  6  5  1  0  0
  8  5  1  0  0
  7  5  1  0  0
  9  5  1  0  0
 10  5  1  0  0
  3 11  1  0  0
  2 12  1  0  0
  9 13  1  0  0
  7 14  1  0  0
 10 15  1  0  0
  8 16  1  0  0
  6 17  1  0  0
M  END
> <NMREDATA_VERSION>
1.1

> <NMREDATA_LEVEL>
0

> <NMREDATA_SOLVENT>
C6D6

> <NMREDATA_TEMPERATURE>
296

> <NMREDATA_FORMULA>
C16H25Rh

> <NMREDATA_SMILES>
CC12C[Rh]345672(C1(C)C3)C1(C6(C5(C4(C71C)C)C)C)C

> <NMREDATA_ASSIGNMENT>
Rh5, -1004.00, 5

> <NMREDATA_1D_103Rh>
-1004.00, L=Rh5

$$$$
