
  ACD/LABS03252415522D

 42 45  0  0  0  0  0  0  0  0  1 V2000
   24.1408   -8.7027    0.0000 C    0  0  0  0  0  0  0  0  0  0  0  0
   24.8048   -7.5521    0.0000 C    0  0  0  0  0  0  0  0  0  0  0  0
   22.8132   -8.7027    0.0000 C    0  0  0  0  0  0  0  0  0  0  0  0
   24.1408   -6.4014    0.0000 C    0  0  0  0  0  0  0  0  0  0  0  0
   22.1495   -7.5521    0.0000 C    0  0  0  0  0  0  0  0  0  0  0  0
   22.8132   -6.4014    0.0000 C    0  0  0  0  0  0  0  0  0  0  0  0
   15.3346  -13.0481    0.0000 O    0  0  0  0  0  0  0  0  0  0  0  0
   15.7862  -11.8002    0.0000 N    0  0  0  0  0  0  0  0  0  0  0  0
   17.0959  -11.5698    0.0000 C    0  0  0  0  0  0  0  0  0  0  0  0
   17.9457  -12.5878    0.0000 C    0  0  0  0  0  0  0  0  0  0  0  0
   17.5563  -10.3309    0.0000 C    0  0  0  0  0  0  0  0  0  0  0  0
   16.6978   -9.3042    0.0000 C    0  0  0  0  0  0  0  0  0  0  0  0
   18.8573  -10.1006    0.0000 N    0  0  0  0  0  0  0  0  0  0  0  0
   19.3177   -8.8618    0.0000 O    0  0  0  0  0  0  0  0  0  0  0  0
   22.9901  -15.1012    0.0000 O    0  0  0  0  0  0  0  0  0  0  0  0
   21.9638  -14.2518    0.0000 N    0  0  0  0  0  0  0  0  0  0  0  0
   22.1938  -12.9417    0.0000 C    0  0  0  0  0  0  0  0  0  0  0  0
   23.4417  -12.4817    0.0000 C    0  0  0  0  0  0  0  0  0  0  0  0
   21.1758  -12.0923    0.0000 C    0  0  0  0  0  0  0  0  0  0  0  0
   19.9371  -12.5435    0.0000 C    0  0  0  0  0  0  0  0  0  0  0  0
   21.4062  -10.7822    0.0000 N    0  0  0  0  0  0  0  0  0  0  0  0
   20.3883   -9.9324    0.0000 O    0  0  0  0  0  0  0  0  0  0  0  0
   20.6182   -8.6318    0.0000 Rh   0  0  0  0  0  0  0  0  0  0  0  0
   20.8395   -7.3221    0.0000 P    0  0  0  0  0  5  0  0  0  0  0  0
   21.0698   -6.0208    0.0000 C    0  0  0  0  0  0  0  0  0  0  0  0
   20.0610   -5.1623    0.0000 C    0  0  0  0  0  0  0  0  0  0  0  0
   22.3177   -5.5608    0.0000 C    0  0  0  0  0  0  0  0  0  0  0  0
   20.2819   -3.8613    0.0000 C    0  0  0  0  0  0  0  0  0  0  0  0
   22.5477   -4.2507    0.0000 C    0  0  0  0  0  0  0  0  0  0  0  0
   21.5298   -3.4013    0.0000 C    0  0  0  0  0  0  0  0  0  0  0  0
   19.5476   -7.1009    0.0000 C    0  0  0  0  0  0  0  0  0  0  0  0
   18.6891   -8.1185    0.0000 C    0  0  0  0  0  0  0  0  0  0  0  0
   19.0877   -5.8526    0.0000 C    0  0  0  0  0  0  0  0  0  0  0  0
   17.3881   -7.8885    0.0000 C    0  0  0  0  0  0  0  0  0  0  0  0
   17.7775   -5.6226    0.0000 C    0  0  0  0  0  0  0  0  0  0  0  0
   16.9277   -6.6405    0.0000 C    0  0  0  0  0  0  0  0  0  0  0  0
   21.9287   -8.8584    0.0000 C    0  0  0  0  0  0  0  0  0  0  0  0
   22.7802   -7.8367    0.0000 C    0  0  0  0  0  0  0  0  0  0  0  0
   22.3879  -10.1067    0.0000 C    0  0  0  0  0  0  0  0  0  0  0  0
   24.0909   -8.0633    0.0000 C    0  0  0  0  0  0  0  0  0  0  0  0
   23.6984  -10.3332    0.0000 C    0  0  0  0  0  0  0  0  0  0  0  0
   24.5499   -9.3116    0.0000 C    0  0  0  0  0  0  0  0  0  0  0  0
  1  2  1  0  0  0  0
  1  3  2  0  0  0  0
  2  4  2  0  0  0  0
  3  5  1  0  0  0  0
  4  6  1  0  0  0  0
  5  6  2  0  0  0  0
  7  8  1  0  0  0  0
  8  9  2  0  0  0  0
  9 10  1  0  0  0  0
  9 11  1  0  0  0  0
 11 12  1  0  0  0  0
 11 13  2  0  0  0  0
 13 14  1  0  0  0  0
 15 16  1  0  0  0  0
 16 17  2  0  0  0  0
 17 18  1  0  0  0  0
 17 19  1  0  0  0  0
 19 20  1  0  0  0  0
 19 21  2  0  0  0  0
 21 22  1  0  0  0  0
 22 23  1  0  0  0  0
 14 23  1  0  0  0  0
 23 24  1  0  0  0  0
 25 26  1  0  0  0  0
 25 27  2  0  0  0  0
 26 28  2  0  0  0  0
 27 29  1  0  0  0  0
 28 30  1  0  0  0  0
 29 30  2  0  0  0  0
 24 25  1  0  0  0  0
 31 32  1  0  0  0  0
 31 33  2  0  0  0  0
 32 34  2  0  0  0  0
 33 35  1  0  0  0  0
 34 36  1  0  0  0  0
 35 36  2  0  0  0  0
 24 31  1  0  0  0  0
  5 24  1  0  0  0  0
 37 38  1  0  0  0  0
 37 39  2  0  0  0  0
 38 40  2  0  0  0  0
 39 41  1  0  0  0  0
 40 42  1  0  0  0  0
 41 42  2  0  0  0  0
 23 37  1  0  0  0  0
M  END
> <NMREDATA_VERSION>
1.1

> <NMREDATA_LEVEL>
0

> <NMREDATA_SOLVENT>
DCCl3

> <NMREDATA_TEMPERATURE>
298

> <NMREDATA_FORMULA>
C32H35N4O4PRh

> <NMREDATA_SMILES>
O/N=C(/C(=N/O[Rh](P(c1ccccc1)(c1ccccc1)c1ccccc1)(c1ccccc1)O/N=C(/C(=N/O)/C)\C)/C)\C

> <NMREDATA_ASSIGNMENT>
Rh23, 2264.00, 23

> <NMREDATA_1D_103Rh>
2264.00, L=Rh23

$$$$
