
  ACD/LABS03282419343D

 63 71  0  0  0  0  0  0  0  0  1 V2000
   18.4557   -8.6556    0.0000 C    0  0  0  0  0  0  0  0  0  0  0  0
   17.6045   -9.6750    0.0000 C    0  0  0  0  0  0  0  0  0  0  0  0
   19.7679   -8.8950    0.0000 C    0  0  0  0  0  0  0  0  0  0  0  0
   18.0481  -10.9253    0.0000 C    0  0  0  0  0  0  0  0  0  0  0  0
   20.2199  -10.1449    0.0000 C    0  0  0  0  0  0  0  0  0  0  0  0
   19.3603  -11.1647    0.0000 C    0  0  0  0  0  0  0  0  0  0  0  0
   17.1173  -15.4554    0.0000 C    0  0  0  0  0  0  0  0  0  0  0  0
   15.8051  -15.6770    0.0000 C    0  0  0  0  0  0  0  0  0  0  0  0
   17.5782  -14.2144    0.0000 C    0  0  0  0  0  0  0  0  0  0  0  0
   14.9632  -14.6576    0.0000 C    0  0  0  0  0  0  0  0  0  0  0  0
   16.7270  -13.1857    0.0000 C    0  0  0  0  0  0  0  0  0  0  0  0
   15.4149  -13.4077    0.0000 C    0  0  0  0  0  0  0  0  0  0  0  0
   20.6458  -12.6273    0.0000 C    0  0  0  0  0  0  0  0  0  0  0  0
   20.6369  -13.9573    0.0000 C    0  0  0  0  0  0  0  0  0  0  0  0
   19.4933  -11.9536    0.0000 C    0  0  0  0  0  0  0  0  0  0  0  0
   19.4844  -14.6131    0.0000 C    0  0  0  0  0  0  0  0  0  0  0  0
   18.3404  -12.6095    0.0000 C    0  0  0  0  0  0  0  0  0  0  0  0
   18.3315  -13.9395    0.0000 C    0  0  0  0  0  0  0  0  0  0  0  0
   15.9203   -1.6609    0.0000 C    0  0  0  0  0  0  0  0  0  0  0  0
   17.2236   -1.4393    0.0000 C    0  0  0  0  0  0  0  0  0  0  0  0
   15.4594   -2.9108    0.0000 C    0  0  0  0  0  0  0  0  0  0  0  0
   18.0833   -2.4587    0.0000 C    0  0  0  0  0  0  0  0  0  0  0  0
   16.3101   -3.9306    0.0000 C    0  0  0  0  0  0  0  0  0  0  0  0
   17.6223   -3.7086    0.0000 C    0  0  0  0  0  0  0  0  0  0  0  0
   17.8354   -6.7321    0.0000 C    0  0  0  0  0  0  0  0  0  0  0  0
   19.1471   -6.9626    0.0000 C    0  0  0  0  0  0  0  0  0  0  0  0
   17.3829   -5.4818    0.0000 C    0  0  0  0  0  0  0  0  0  0  0  0
   20.0072   -5.9516    0.0000 C    0  0  0  0  0  0  0  0  0  0  0  0
   18.2430   -4.4624    0.0000 C    0  0  0  0  0  0  0  0  0  0  0  0
   19.5552   -4.6928    0.0000 C    0  0  0  0  0  0  0  0  0  0  0  0
   14.8391   -3.4519    0.0000 C    0  0  0  0  0  0  0  0  0  0  0  0
   13.6867   -2.7867    0.0000 C    0  0  0  0  0  0  0  0  0  0  0  0
   14.8391   -4.7814    0.0000 C    0  0  0  0  0  0  0  0  0  0  0  0
   12.5338   -3.4519    0.0000 C    0  0  0  0  0  0  0  0  0  0  0  0
   13.6867   -5.4466    0.0000 C    0  0  0  0  0  0  0  0  0  0  0  0
   12.5338   -4.7814    0.0000 C    0  0  0  0  0  0  0  0  0  0  0  0
   12.3033   -9.3471    0.0000 C    0  0  0  0  0  0  0  0  0  0  0  0
   12.0817   -8.0442    0.0000 C    0  0  0  0  0  0  0  0  0  0  0  0
   11.2839  -10.1894    0.0000 C    0  0  0  0  0  0  0  0  0  0  0  0
   10.8403   -7.5833    0.0000 C    0  0  0  0  0  0  0  0  0  0  0  0
   10.0336   -9.7284    0.0000 C    0  0  0  0  0  0  0  0  0  0  0  0
    9.8120   -8.4256    0.0000 C    0  0  0  0  0  0  0  0  0  0  0  0
   13.1634   -7.5477    0.0000 C    0  0  0  0  0  0  0  0  0  0  0  0
   14.0146   -8.5582    0.0000 C    0  0  0  0  0  0  0  0  0  0  0  0
   13.6333   -6.2978    0.0000 C    0  0  0  0  0  0  0  0  0  0  0  0
   15.3174   -8.3455    0.0000 C    0  0  0  0  0  0  0  0  0  0  0  0
   14.9454   -6.0758    0.0000 C    0  0  0  0  0  0  0  0  0  0  0  0
   15.7784   -7.1045    0.0000 C    0  0  0  0  0  0  0  0  0  0  0  0
   12.9240  -14.7996    0.0000 C    0  0  0  0  0  0  0  0  0  0  0  0
   13.3850  -13.5492    0.0000 C    0  0  0  0  0  0  0  0  0  0  0  0
   11.6118  -15.0211    0.0000 C    0  0  0  0  0  0  0  0  0  0  0  0
   12.5427  -12.5209    0.0000 C    0  0  0  0  0  0  0  0  0  0  0  0
   10.7695  -13.9929    0.0000 C    0  0  0  0  0  0  0  0  0  0  0  0
   11.2305  -12.7425    0.0000 C    0  0  0  0  0  0  0  0  0  0  0  0
   16.0445  -11.2711    0.0000 Rh   0  0  0  0  0  0  0  0  0  0  0  0
   17.1969  -10.6148    0.0000 H    0  0  0  0  0  0  0  0  0  0  0  0
   16.0356  -12.6006    0.0000 H    0  0  0  0  0  0  0  0  0  0  0  0
   17.1969  -11.9447    0.0000 P    0  0  0  0  0  0  0  0  0  0  0  0
   16.0796   -5.2424    0.0000 P    0  0  0  0  0  0  0  0  0  0  0  0
   13.5536   -9.8081    0.0000 P    0  0  0  0  0  0  0  0  0  0  0  0
   14.8880  -11.9279    0.0000 N    0  0  0  0  0  0  0  0  0  0  0  0
   13.7409  -11.2547    0.0000 C    0  0  0  0  0  0  0  0  0  0  0  0
   12.5938  -10.5816    0.0000 S    0  0  0  0  0  0  0  0  0  0  0  0
  1  2  1  0  0  0  0
  1  3  2  0  0  0  0
  2  4  2  0  0  0  0
  3  5  1  0  0  0  0
  4  6  1  0  0  0  0
  5  6  2  0  0  0  0
  7  8  1  0  0  0  0
  7  9  2  0  0  0  0
  8 10  2  0  0  0  0
  9 11  1  0  0  0  0
 10 12  1  0  0  0  0
 11 12  2  0  0  0  0
 13 14  1  0  0  0  0
 13 15  2  0  0  0  0
 14 16  2  0  0  0  0
 15 17  1  0  0  0  0
 16 18  1  0  0  0  0
 17 18  2  0  0  0  0
 19 20  1  0  0  0  0
 19 21  2  0  0  0  0
 20 22  2  0  0  0  0
 21 23  1  0  0  0  0
 22 24  1  0  0  0  0
 23 24  2  0  0  0  0
 25 26  1  0  0  0  0
 25 27  2  0  0  0  0
 26 28  2  0  0  0  0
 27 29  1  0  0  0  0
 28 30  1  0  0  0  0
 29 30  2  0  0  0  0
 31 32  1  0  0  0  0
 31 33  2  0  0  0  0
 32 34  2  0  0  0  0
 33 35  1  0  0  0  0
 34 36  1  0  0  0  0
 35 36  2  0  0  0  0
 37 38  1  0  0  0  0
 37 39  2  0  0  0  0
 38 40  2  0  0  0  0
 39 41  1  0  0  0  0
 40 42  1  0  0  0  0
 41 42  2  0  0  0  0
 43 44  1  0  0  0  0
 43 45  2  0  0  0  0
 44 46  2  0  0  0  0
 45 47  1  0  0  0  0
 46 48  1  0  0  0  0
 47 48  2  0  0  0  0
 49 50  1  0  0  0  0
 49 51  2  0  0  0  0
 50 52  2  0  0  0  0
 51 53  1  0  0  0  0
 52 54  1  0  0  0  0
 53 54  2  0  0  0  0
 55 56  1  0  0  0  0
 55 57  1  0  0  0  0
 55 58  1  0  0  0  0
 55 59  1  0  0  0  0
 55 60  1  0  0  0  0
 52 60  1  0  0  0  0
 44 60  1  0  0  0  0
 37 60  1  0  0  0  0
 33 59  1  0  0  0  0
 27 59  1  0  0  0  0
 23 59  1  0  0  0  0
 17 58  1  0  0  0  0
 11 58  1  0  0  0  0
  4 58  1  0  0  0  0
 61 62  2  0  0  0  0
 62 63  2  0  0  0  0
 55 61  1  0  0  0  0
M  END
> <NMREDATA_VERSION>
1.1

> <NMREDATA_LEVEL>
0

> <NMREDATA_SOLVENT>
DCCl3

> <NMREDATA_TEMPERATURE>
247

> <NMREDATA_FORMULA>
C55H50NP3RhS

> <NMREDATA_SMILES>
S=C=N[RhH2](P(c1ccccc1)(c1ccccc1)c1ccccc1)(P(c1ccccc1)(c1ccccc1)c1ccccc1)P(c1ccccc1)(c1ccccc1)c1ccccc1

> <NMREDATA_ASSIGNMENT>
Rh55, 21.00, 55

> <NMREDATA_1D_103Rh>
21.00, L=Rh55

$$$$
