
  ACD/LABS03122418272D

 60 66  0  0  0  0  0  0  0  0  2 V2000
   22.0732   -8.1963    0.0000 Cl   0  0  0  0  0  0  0  0  0  0  0  0
   21.4322   -7.0861    0.0000 O    0  0  0  0  0  0  0  0  0  0  0  0
   23.1834   -7.5554    0.0000 O    0  0  0  0  0  0  0  0  0  0  0  0
   20.9630   -8.8373    0.0000 O    0  0  0  0  0  0  0  0  0  0  0  0
   22.7142   -9.3065    0.0000 O    0  5  0  0  0  0  0  0  0  0  0  0
   10.1890  -14.8902    0.0000 P    0  0  0  0  0  0  0  0  0  0  0  0
    8.8380  -15.6588    0.0000 C    0  0  0  0  0  0  0  0  0  0  0  0
    8.8281  -17.2131    0.0000 C    0  0  0  0  0  0  0  0  0  0  0  0
    7.4968  -14.8731    0.0000 C    0  0  0  0  0  0  0  0  0  0  0  0
    7.4770  -17.9817    0.0000 C    0  0  0  0  0  0  0  0  0  0  0  0
    6.1458  -15.6417    0.0000 C    0  0  0  0  0  0  0  0  0  0  0  0
    6.1359  -17.1960    0.0000 C    0  0  0  0  0  0  0  0  0  0  0  0
   11.5301  -15.6759    0.0000 C    0  0  0  0  0  0  0  0  0  0  0  0
   12.8811  -14.9073    0.0000 C    0  0  0  0  0  0  0  0  0  0  0  0
   11.5203  -17.2303    0.0000 C    0  0  0  0  0  0  0  0  0  0  0  0
   14.2223  -15.6931    0.0000 C    0  0  0  0  0  0  0  0  0  0  0  0
   12.8614  -18.0160    0.0000 C    0  0  0  0  0  0  0  0  0  0  0  0
   14.2124  -17.2474    0.0000 C    0  0  0  0  0  0  0  0  0  0  0  0
   11.5448   -9.4452    0.0000 Rh   0  3  0  0  0  0  0  0  0  0  0  0
   12.8902   -8.6743    0.0000 P    0  0  0  0  0  0  0  0  0  0  0  0
   11.5499  -10.9959    0.0000 P    0  0  0  0  0  0  0  0  0  0  0  0
   11.5400  -12.5502    0.0000 C    0  0  0  0  0  0  0  0  0  0  0  0
   14.2412   -6.3343    0.0000 C    0  0  0  0  0  0  0  0  0  0  0  0
   15.5824   -5.5486    0.0000 P    0  0  0  0  0  0  0  0  0  0  0  0
   16.9334   -6.3172    0.0000 C    0  0  0  0  0  0  0  0  0  0  0  0
   18.2745   -5.5315    0.0000 C    0  0  0  0  0  0  0  0  0  0  0  0
   16.9433   -7.8716    0.0000 C    0  0  0  0  0  0  0  0  0  0  0  0
   19.6256   -6.3002    0.0000 C    0  0  0  0  0  0  0  0  0  0  0  0
   18.2943   -8.6402    0.0000 C    0  0  0  0  0  0  0  0  0  0  0  0
   19.6354   -7.8545    0.0000 C    0  0  0  0  0  0  0  0  0  0  0  0
   15.5725   -3.9943    0.0000 C    0  0  0  0  0  0  0  0  0  0  0  0
   14.2215   -3.2257    0.0000 C    0  0  0  0  0  0  0  0  0  0  0  0
   16.9137   -3.2085    0.0000 C    0  0  0  0  0  0  0  0  0  0  0  0
   14.2117   -1.6713    0.0000 C    0  0  0  0  0  0  0  0  0  0  0  0
   16.9038   -1.6542    0.0000 C    0  0  0  0  0  0  0  0  0  0  0  0
   15.5528   -0.8856    0.0000 C    0  0  0  0  0  0  0  0  0  0  0  0
   13.1042  -10.9983    0.0000 C    0  0  0  0  0  0  0  0  0  0  0  0
   13.8835   -9.6534    0.0000 C    0  0  0  0  0  0  0  0  0  0  0  0
   13.8794  -12.3457    0.0000 C    0  0  0  0  0  0  0  0  0  0  0  0
   15.4379   -9.6559    0.0000 C    0  0  0  0  0  0  0  0  0  0  0  0
   15.4337  -12.3481    0.0000 C    0  0  0  0  0  0  0  0  0  0  0  0
   16.2129  -11.0032    0.0000 C    0  0  0  0  0  0  0  0  0  0  0  0
    9.9955  -10.9935    0.0000 C    0  0  0  0  0  0  0  0  0  0  0  0
    9.2163  -12.3384    0.0000 C    0  0  0  0  0  0  0  0  0  0  0  0
    9.2204   -9.6462    0.0000 C    0  0  0  0  0  0  0  0  0  0  0  0
    7.6618  -12.3359    0.0000 C    0  0  0  0  0  0  0  0  0  0  0  0
    7.6661   -9.6438    0.0000 C    0  0  0  0  0  0  0  0  0  0  0  0
    6.8868  -10.9886    0.0000 C    0  0  0  0  0  0  0  0  0  0  0  0
   13.9875   -9.7752    0.0000 C    0  0  0  0  0  0  0  0  0  0  0  0
   15.4896   -9.3754    0.0000 C    0  0  0  0  0  0  0  0  0  0  0  0
   13.5828  -11.2760    0.0000 C    0  0  0  0  0  0  0  0  0  0  0  0
   16.5868  -10.4764    0.0000 C    0  0  0  0  0  0  0  0  0  0  0  0
   14.6800  -12.3769    0.0000 C    0  0  0  0  0  0  0  0  0  0  0  0
   16.1821  -11.9771    0.0000 C    0  0  0  0  0  0  0  0  0  0  0  0
   11.7930   -7.5734    0.0000 C    0  0  0  0  0  0  0  0  0  0  0  0
   10.2909   -7.9732    0.0000 C    0  0  0  0  0  0  0  0  0  0  0  0
   12.1977   -6.0726    0.0000 C    0  0  0  0  0  0  0  0  0  0  0  0
    9.1936   -6.8722    0.0000 C    0  0  0  0  0  0  0  0  0  0  0  0
   11.1005   -4.9717    0.0000 C    0  0  0  0  0  0  0  0  0  0  0  0
    9.5984   -5.3715    0.0000 C    0  0  0  0  0  0  0  0  0  0  0  0
  1  2  2  0  0  0  0
  1  3  2  0  0  0  0
  1  4  2  0  0  0  0
  1  5  1  0  0  0  0
  7  8  1  0  0  0  0
  7  9  2  0  0  0  0
  8 10  2  0  0  0  0
  9 11  1  0  0  0  0
 10 12  1  0  0  0  0
 11 12  2  0  0  0  0
  6  7  1  0  0  0  0
 13 14  1  0  0  0  0
 13 15  2  0  0  0  0
 14 16  2  0  0  0  0
 15 17  1  0  0  0  0
 16 18  1  0  0  0  0
 17 18  2  0  0  0  0
  6 13  1  0  0  0  0
 19 20  1  0  0  0  0
 21 22  1  0  0  0  0
 19 21  1  0  0  0  0
 23 24  1  0  0  0  0
 25 26  1  0  0  0  0
 25 27  2  0  0  0  0
 26 28  2  0  0  0  0
 27 29  1  0  0  0  0
 28 30  1  0  0  0  0
 29 30  2  0  0  0  0
 24 25  1  0  0  0  0
 31 32  1  0  0  0  0
 31 33  2  0  0  0  0
 32 34  2  0  0  0  0
 33 35  1  0  0  0  0
 34 36  1  0  0  0  0
 35 36  2  0  0  0  0
 24 31  1  0  0  0  0
 20 23  1  0  0  0  0
  6 22  1  0  0  0  0
 37 38  1  0  0  0  0
 37 39  2  0  0  0  0
 38 40  2  0  0  0  0
 39 41  1  0  0  0  0
 40 42  1  0  0  0  0
 41 42  2  0  0  0  0
 21 37  1  0  0  0  0
 43 44  1  0  0  0  0
 43 45  2  0  0  0  0
 44 46  2  0  0  0  0
 45 47  1  0  0  0  0
 46 48  1  0  0  0  0
 47 48  2  0  0  0  0
 21 43  1  0  0  0  0
 49 50  1  0  0  0  0
 49 51  2  0  0  0  0
 50 52  2  0  0  0  0
 51 53  1  0  0  0  0
 52 54  1  0  0  0  0
 53 54  2  0  0  0  0
 20 49  1  0  0  0  0
 55 56  1  0  0  0  0
 55 57  2  0  0  0  0
 56 58  2  0  0  0  0
 57 59  1  0  0  0  0
 58 60  1  0  0  0  0
 59 60  2  0  0  0  0
 20 55  1  0  0  0  0
M  END
> <NMREDATA_VERSION>
1.1

> <NMREDATA_LEVEL>
0

> <NMREDATA_SOLVENT>
CD2Cl2

> <NMREDATA_TEMPERATURE>
298

> <NMREDATA_FORMULA>
C50H47ClO4P4Rh

> <NMREDATA_SMILES>
c1ccc(cc1)P(c1ccccc1)([Rh]P(c1ccccc1)(c1ccccc1)CP(c1ccccc1)c1ccccc1)CP(c1ccccc1)c1ccccc1.O[Cl](=O)(=O)=O

> <NMREDATA_ASSIGNMENT>
Rh19, -354.00, 19

> <NMREDATA_1D_103Rh>
-354.00, L=Rh19

$$$$
