
  ACD/LABS03262412152D

 25 24  0  0  0  0  0  0  0  0  1 V2000
   19.4430   -4.7022    0.0000 O    0  0  0  0  0  0  0  0  0  0  0  0
   19.4425   -6.0327    0.0000 N    0  0  0  0  0  0  0  0  0  0  0  0
   18.2907   -6.6980    0.0000 C    0  0  0  0  0  0  0  0  0  0  0  0
   17.1395   -6.0334    0.0000 C    0  0  0  0  0  0  0  0  0  0  0  0
   18.2904   -8.0282    0.0000 C    0  0  0  0  0  0  0  0  0  0  0  0
   19.4416   -8.6929    0.0000 C    0  0  0  0  0  0  0  0  0  0  0  0
   17.1386   -8.6936    0.0000 N    0  0  0  0  0  0  0  0  0  0  0  0
   17.1383  -10.0238    0.0000 O    0  0  0  0  0  0  0  0  0  0  0  0
   10.0241   -7.2262    0.0000 O    0  0  0  0  0  0  0  0  0  0  0  0
   11.3498   -7.2344    0.0000 N    0  0  0  0  0  0  0  0  0  0  0  0
   12.0200   -8.3785    0.0000 C    0  0  0  0  0  0  0  0  0  0  0  0
   11.3553   -9.5298    0.0000 C    0  0  0  0  0  0  0  0  0  0  0  0
   13.3457   -8.3867    0.0000 C    0  0  0  0  0  0  0  0  0  0  0  0
   14.0103   -7.2355    0.0000 C    0  0  0  0  0  0  0  0  0  0  0  0
   14.0077   -9.5261    0.0000 N    0  0  0  0  0  0  0  0  0  0  0  0
   15.3254   -9.5297    0.0000 O    0  0  0  0  0  0  0  0  0  0  0  0
   15.9953  -10.6737    0.0000 Rh   0  0  0  0  0  0  0  0  0  0  0  0
   14.8438  -11.3392    0.0000 C    0  0  0  0  0  0  0  0  0  0  0  0
   14.8432  -12.6692    0.0000 C    0  0  0  0  0  0  0  0  0  0  0  0
   13.6917  -13.3348    0.0000 C    0  0  0  0  0  0  0  0  0  0  0  0
   13.6911  -14.6648    0.0000 C    0  0  0  0  0  0  0  0  0  0  0  0
   12.5394  -15.3307    0.0000 C    0  0  0  0  0  0  0  0  0  0  0  0
   16.6612  -11.8254    0.0000 S    0  0  0  0  0  0  0  0  0  0  0  0
   17.9912  -11.8260    0.0000 C    0  0  0  0  0  0  0  0  0  0  0  0
   15.9964  -12.9770    0.0000 C    0  0  0  0  0  0  0  0  0  0  0  0
  1  2  1  0  0  0  0
  2  3  2  0  0  0  0
  3  4  1  0  0  0  0
  3  5  1  0  0  0  0
  5  6  1  0  0  0  0
  5  7  2  0  0  0  0
  7  8  1  0  0  0  0
  9 10  1  0  0  0  0
 10 11  2  0  0  0  0
 11 12  1  0  0  0  0
 11 13  1  0  0  0  0
 13 14  1  0  0  0  0
 13 15  2  0  0  0  0
 15 16  1  0  0  0  0
 16 17  1  0  0  0  0
  8 17  1  0  0  0  0
 17 18  1  0  0  0  0
 18 19  1  0  0  0  0
 19 20  1  0  0  0  0
 20 21  1  0  0  0  0
 21 22  2  0  0  0  0
 17 23  1  0  0  0  0
 23 24  1  0  0  0  0
 23 25  1  0  0  0  0
M  END
> <NMREDATA_VERSION>
1.1

> <NMREDATA_LEVEL>
0

> <NMREDATA_SOLVENT>
DCCl3

> <NMREDATA_TEMPERATURE>
298

> <NMREDATA_FORMULA>
C15H30N4O4RhS

> <NMREDATA_SMILES>
C=CCCC[Rh](S(C)C)(O/N=C(/C(=N/O)/C)\C)O/N=C(/C(=N/O)/C)\C

> <NMREDATA_ASSIGNMENT>
Rh17, 2397.00, 17

> <NMREDATA_1D_103Rh>
2397.00, L=Rh17

$$$$
