
  ACD/LABS03282419152D

 81 92  0  0  0  0  0  0  0  0  1 V2000
   17.5597  -15.2301    0.0000 C    0  0  0  0  0  0  0  0  0  0  0  0
   18.8629  -14.9998    0.0000 C    0  0  0  0  0  0  0  0  0  0  0  0
   17.0985  -16.4720    0.0000 C    0  0  0  0  0  0  0  0  0  0  0  0
   19.7233  -16.0194    0.0000 C    0  0  0  0  0  0  0  0  0  0  0  0
   17.9497  -17.4915    0.0000 C    0  0  0  0  0  0  0  0  0  0  0  0
   19.2621  -17.2697    0.0000 C    0  0  0  0  0  0  0  0  0  0  0  0
   14.3146  -18.4667    0.0000 C    0  0  0  0  0  0  0  0  0  0  0  0
   13.0642  -18.9102    0.0000 C    0  0  0  0  0  0  0  0  0  0  0  0
   14.5454  -17.1543    0.0000 C    0  0  0  0  0  0  0  0  0  0  0  0
   12.0446  -18.0590    0.0000 C    0  0  0  0  0  0  0  0  0  0  0  0
   13.5344  -16.2946    0.0000 C    0  0  0  0  0  0  0  0  0  0  0  0
   12.2840  -16.7466    0.0000 C    0  0  0  0  0  0  0  0  0  0  0  0
   16.0164  -18.0146    0.0000 C    0  0  0  0  0  0  0  0  0  0  0  0
   15.0066  -18.8659    0.0000 C    0  0  0  0  0  0  0  0  0  0  0  0
   17.2668  -18.4667    0.0000 C    0  0  0  0  0  0  0  0  0  0  0  0
   15.2369  -20.1782    0.0000 C    0  0  0  0  0  0  0  0  0  0  0  0
   17.4977  -19.7791    0.0000 C    0  0  0  0  0  0  0  0  0  0  0  0
   16.4776  -20.6303    0.0000 C    0  0  0  0  0  0  0  0  0  0  0  0
   12.5143   -4.5992    0.0000 C    0  0  0  0  0  0  0  0  0  0  0  0
   13.7647   -5.0513    0.0000 C    0  0  0  0  0  0  0  0  0  0  0  0
   12.2840   -3.2868    0.0000 C    0  0  0  0  0  0  0  0  0  0  0  0
   14.7848   -4.2000    0.0000 C    0  0  0  0  0  0  0  0  0  0  0  0
   13.3036   -2.4356    0.0000 C    0  0  0  0  0  0  0  0  0  0  0  0
   14.5539   -2.8877    0.0000 C    0  0  0  0  0  0  0  0  0  0  0  0
   16.1495   -7.1529    0.0000 C    0  0  0  0  0  0  0  0  0  0  0  0
   15.2988   -6.1328    0.0000 C    0  0  0  0  0  0  0  0  0  0  0  0
   17.4533   -6.9220    0.0000 C    0  0  0  0  0  0  0  0  0  0  0  0
   15.7503   -4.8829    0.0000 C    0  0  0  0  0  0  0  0  0  0  0  0
   17.9145   -5.6722    0.0000 C    0  0  0  0  0  0  0  0  0  0  0  0
   17.0627   -4.6521    0.0000 C    0  0  0  0  0  0  0  0  0  0  0  0
   11.8320   -5.5744    0.0000 C    0  0  0  0  0  0  0  0  0  0  0  0
   12.6832   -6.5939    0.0000 C    0  0  0  0  0  0  0  0  0  0  0  0
   10.5196   -5.7961    0.0000 C    0  0  0  0  0  0  0  0  0  0  0  0
   12.2220   -7.8358    0.0000 C    0  0  0  0  0  0  0  0  0  0  0  0
   10.0584   -7.0465    0.0000 C    0  0  0  0  0  0  0  0  0  0  0  0
   10.9182   -8.0661    0.0000 C    0  0  0  0  0  0  0  0  0  0  0  0
    9.1185  -12.1886    0.0000 C    0  0  0  0  0  0  0  0  0  0  0  0
   10.2711  -12.8539    0.0000 C    0  0  0  0  0  0  0  0  0  0  0  0
    9.1185  -10.8682    0.0000 C    0  0  0  0  0  0  0  0  0  0  0  0
   11.4237  -12.1886    0.0000 C    0  0  0  0  0  0  0  0  0  0  0  0
   10.2711  -10.2029    0.0000 C    0  0  0  0  0  0  0  0  0  0  0  0
   11.4237  -10.8682    0.0000 C    0  0  0  0  0  0  0  0  0  0  0  0
   15.2369  -10.5578    0.0000 C    0  0  0  0  0  0  0  0  0  0  0  0
   14.5716  -11.7013    0.0000 C    0  0  0  0  0  0  0  0  0  0  0  0
   14.5716   -9.4052    0.0000 C    0  0  0  0  0  0  0  0  0  0  0  0
   13.2416  -11.7013    0.0000 C    0  0  0  0  0  0  0  0  0  0  0  0
   13.2416   -9.4052    0.0000 C    0  0  0  0  0  0  0  0  0  0  0  0
   12.5769  -10.5578    0.0000 C    0  0  0  0  0  0  0  0  0  0  0  0
   11.3265  -16.1439    0.0000 C    0  0  0  0  0  0  0  0  0  0  0  0
   12.1777  -15.1238    0.0000 C    0  0  0  0  0  0  0  0  0  0  0  0
   10.0141  -15.9130    0.0000 C    0  0  0  0  0  0  0  0  0  0  0  0
   11.7256  -13.8734    0.0000 C    0  0  0  0  0  0  0  0  0  0  0  0
    9.5615  -14.6626    0.0000 C    0  0  0  0  0  0  0  0  0  0  0  0
   10.4133  -13.6431    0.0000 C    0  0  0  0  0  0  0  0  0  0  0  0
   16.7528   -8.4033    0.0000 C    0  0  0  0  0  0  0  0  0  0  0  0
   18.0828   -8.4033    0.0000 C    0  0  0  0  0  0  0  0  0  0  0  0
   16.0875   -9.5559    0.0000 C    0  0  0  0  0  0  0  0  0  0  0  0
   18.7475   -9.5559    0.0000 C    0  0  0  0  0  0  0  0  0  0  0  0
   16.7528  -10.7085    0.0000 C    0  0  0  0  0  0  0  0  0  0  0  0
   18.0828  -10.7085    0.0000 C    0  0  0  0  0  0  0  0  0  0  0  0
   15.2988  -13.8472    0.0000 Rh   0  0  0  0  0  0  0  0  0  0  0  0
   16.4423  -13.1819    0.0000 C    0  0  0  0  0  0  0  0  0  0  0  0
   17.5949  -12.5167    0.0000 N    0  0  0  0  0  0  0  0  0  0  0  0
   18.7475  -11.8519    0.0000 B    0  0  0  0  0  0  0  0  0  0  0  0
   19.5987  -12.8715    0.0000 C    0  0  0  0  0  0  0  0  0  0  0  0
   19.1467  -14.1219    0.0000 C    0  0  0  0  0  0  0  0  0  0  0  0
   20.9111  -12.6412    0.0000 C    0  0  0  0  0  0  0  0  0  0  0  0
   19.9979  -15.1414    0.0000 C    0  0  0  0  0  0  0  0  0  0  0  0
   21.7629  -13.6607    0.0000 C    0  0  0  0  0  0  0  0  0  0  0  0
   21.3103  -14.9111    0.0000 C    0  0  0  0  0  0  0  0  0  0  0  0
   19.9007  -11.1963    0.0000 C    0  0  0  0  0  0  0  0  0  0  0  0
   19.9007   -9.8663    0.0000 C    0  0  0  0  0  0  0  0  0  0  0  0
   21.0533  -11.8519    0.0000 C    0  0  0  0  0  0  0  0  0  0  0  0
   21.0533   -9.2010    0.0000 C    0  0  0  0  0  0  0  0  0  0  0  0
   22.2059  -11.1963    0.0000 C    0  0  0  0  0  0  0  0  0  0  0  0
   22.2059   -9.8663    0.0000 C    0  0  0  0  0  0  0  0  0  0  0  0
   14.2793  -14.6985    0.0000 H    0  0  0  0  0  0  0  0  0  0  0  0
   16.5396  -14.3084    0.0000 H    0  0  0  0  0  0  0  0  0  0  0  0
   12.5769  -12.8539    0.0000 P    0  0  0  0  0  0  0  0  0  0  0  0
   13.9956   -6.3636    0.0000 P    0  0  0  0  0  0  0  0  0  0  0  0
   15.7861  -16.7023    0.0000 P    0  0  0  0  0  0  0  0  0  0  0  0
  1  2  1  0  0  0  0
  1  3  2  0  0  0  0
  2  4  2  0  0  0  0
  3  5  1  0  0  0  0
  4  6  1  0  0  0  0
  5  6  2  0  0  0  0
  7  8  1  0  0  0  0
  7  9  2  0  0  0  0
  8 10  2  0  0  0  0
  9 11  1  0  0  0  0
 10 12  1  0  0  0  0
 11 12  2  0  0  0  0
 13 14  1  0  0  0  0
 13 15  2  0  0  0  0
 14 16  2  0  0  0  0
 15 17  1  0  0  0  0
 16 18  1  0  0  0  0
 17 18  2  0  0  0  0
 19 20  1  0  0  0  0
 19 21  2  0  0  0  0
 20 22  2  0  0  0  0
 21 23  1  0  0  0  0
 22 24  1  0  0  0  0
 23 24  2  0  0  0  0
 25 26  1  0  0  0  0
 25 27  2  0  0  0  0
 26 28  2  0  0  0  0
 27 29  1  0  0  0  0
 28 30  1  0  0  0  0
 29 30  2  0  0  0  0
 31 32  1  0  0  0  0
 31 33  2  0  0  0  0
 32 34  2  0  0  0  0
 33 35  1  0  0  0  0
 34 36  1  0  0  0  0
 35 36  2  0  0  0  0
 37 38  1  0  0  0  0
 37 39  2  0  0  0  0
 38 40  2  0  0  0  0
 39 41  1  0  0  0  0
 40 42  1  0  0  0  0
 41 42  2  0  0  0  0
 43 44  1  0  0  0  0
 43 45  2  0  0  0  0
 44 46  2  0  0  0  0
 45 47  1  0  0  0  0
 46 48  1  0  0  0  0
 47 48  2  0  0  0  0
 49 50  1  0  0  0  0
 49 51  2  0  0  0  0
 50 52  2  0  0  0  0
 51 53  1  0  0  0  0
 52 54  1  0  0  0  0
 53 54  2  0  0  0  0
 55 56  1  0  0  0  0
 55 57  2  0  0  0  0
 56 58  2  0  0  0  0
 57 59  1  0  0  0  0
 58 60  1  0  0  0  0
 59 60  2  0  0  0  0
 62 63  3  0  0  0  0
 61 62  1  0  0  0  0
 63 64  1  0  0  0  0
 65 66  1  0  0  0  0
 65 67  2  0  0  0  0
 66 68  2  0  0  0  0
 67 69  1  0  0  0  0
 68 70  1  0  0  0  0
 69 70  2  0  0  0  0
 64 65  1  0  0  0  0
 71 72  1  0  0  0  0
 71 73  2  0  0  0  0
 72 74  2  0  0  0  0
 73 75  1  0  0  0  0
 74 76  1  0  0  0  0
 75 76  2  0  0  0  0
 64 71  1  0  0  0  0
 60 64  1  0  0  0  0
 61 77  1  0  0  0  0
 61 78  1  0  0  0  0
 61 79  1  0  0  0  0
 61 80  1  0  0  0  0
 61 81  1  0  0  0  0
 52 79  1  0  0  0  0
 46 79  1  0  0  0  0
 40 79  1  0  0  0  0
 32 80  1  0  0  0  0
 26 80  1  0  0  0  0
 20 80  1  0  0  0  0
 13 81  1  0  0  0  0
  9 81  1  0  0  0  0
  3 81  1  0  0  0  0
M  END
> <NMREDATA_VERSION>
1.1

> <NMREDATA_LEVEL>
0

> <NMREDATA_SOLVENT>
DCCl3

> <NMREDATA_TEMPERATURE>
247

> <NMREDATA_FORMULA>
C73H66BNP3Rh

> <NMREDATA_SMILES>
c1ccc(cc1)[B](c1ccccc1)(c1ccccc1)N#C[RhH2](P(c1ccccc1)(c1ccccc1)c1ccccc1)(P(c1ccccc1)(c1ccccc1)c1ccccc1)P(c1ccccc1)(c1ccccc1)c1ccccc1

> <NMREDATA_ASSIGNMENT>
Rh61, -609.00, 61

> <NMREDATA_1D_103Rh>
-609.00, L=Rh61

$$$$
