
  ACD/LABS02122415302D

 50 57  0  0  0  0  0  0  0  0  1 V2000
   14.6339   -9.7536    0.0000 C    0  0  0  0  0  0  0  0  0  0  0  0
   13.7859  -10.7860    0.0000 C    0  0  0  0  0  0  0  0  0  0  0  0
   14.1786   -8.5214    0.0000 C    0  0  0  0  0  0  0  0  0  0  0  0
   12.4813  -10.5667    0.0000 C    0  0  0  0  0  0  0  0  0  0  0  0
   12.8620   -8.2986    0.0000 C    0  0  0  0  0  0  0  0  0  0  0  0
   12.0169   -9.3188    0.0000 C    0  0  0  0  0  0  0  0  0  0  0  0
   16.1716   -8.1596    0.0000 Rh   0  0  0  0  0  0  0  0  0  0  0  0
   18.3313  -11.4394    0.0000 C    0  0  0  0  0  0  0  0  0  0  0  0
   18.7890  -10.1918    0.0000 C    0  0  0  0  0  0  0  0  0  0  0  0
   17.0298  -11.6682    0.0000 C    0  0  0  0  0  0  0  0  0  0  0  0
   17.9329   -9.1700    0.0000 C    0  0  0  0  0  0  0  0  0  0  0  0
   16.1739  -10.6467    0.0000 C    0  0  0  0  0  0  0  0  0  0  0  0
   16.6234   -9.4039    0.0000 C    0  0  0  0  0  0  0  0  0  0  0  0
   18.3904   -7.9230    0.0000 C    0  0  0  0  0  0  0  0  0  0  0  0
   14.8602  -10.8725    0.0000 C    0  0  0  0  0  0  0  0  0  0  0  0
   19.6996   -7.6893    0.0000 P    0  0  0  0  0  0  0  0  0  0  0  0
   14.4026  -12.1201    0.0000 P    0  0  0  0  0  0  0  0  0  0  0  0
   20.5558   -8.7106    0.0000 N    0  0  0  0  0  0  0  0  0  0  0  0
   21.8780   -8.6235    0.0000 C    0  0  0  0  0  0  0  0  0  0  0  0
   20.2283  -10.0061    0.0000 C    0  0  0  0  0  0  0  0  0  0  0  0
   22.3775   -9.8612    0.0000 C    0  0  0  0  0  0  0  0  0  0  0  0
   21.3592  -10.7052    0.0000 C    0  0  0  0  0  0  0  0  0  0  0  0
   20.1620   -6.4499    0.0000 N    0  0  0  0  0  0  0  0  0  0  0  0
   19.4246   -5.3496    0.0000 C    0  0  0  0  0  0  0  0  0  0  0  0
   21.4431   -6.0785    0.0000 C    0  0  0  0  0  0  0  0  0  0  0  0
   20.2439   -4.3029    0.0000 C    0  0  0  0  0  0  0  0  0  0  0  0
   21.4915   -4.7605    0.0000 C    0  0  0  0  0  0  0  0  0  0  0  0
   15.2584  -13.1416    0.0000 N    0  0  0  0  0  0  0  0  0  0  0  0
   16.5885  -13.0499    0.0000 C    0  0  0  0  0  0  0  0  0  0  0  0
   14.9388  -14.4325    0.0000 C    0  0  0  0  0  0  0  0  0  0  0  0
   17.0880  -14.2876    0.0000 C    0  0  0  0  0  0  0  0  0  0  0  0
   16.0619  -15.1361    0.0000 C    0  0  0  0  0  0  0  0  0  0  0  0
   13.0932  -12.3534    0.0000 N    0  0  0  0  0  0  0  0  0  0  0  0
   12.5132  -13.5485    0.0000 C    0  0  0  0  0  0  0  0  0  0  0  0
   12.1396  -11.4294    0.0000 C    0  0  0  0  0  0  0  0  0  0  0  0
   11.1941  -13.3577    0.0000 C    0  0  0  0  0  0  0  0  0  0  0  0
   10.9608  -12.0484    0.0000 C    0  0  0  0  0  0  0  0  0  0  0  0
   15.0191   -7.4934    0.0000 P    0  0  0  0  0  0  0  0  0  0  0  0
   15.8637   -6.4731    0.0000 C    0  0  0  0  0  0  0  0  0  0  0  0
   15.3995   -5.2255    0.0000 C    0  0  0  0  0  0  0  0  0  0  0  0
   17.1726   -6.7008    0.0000 C    0  0  0  0  0  0  0  0  0  0  0  0
   16.2440   -4.2053    0.0000 C    0  0  0  0  0  0  0  0  0  0  0  0
   18.0210   -5.6683    0.0000 C    0  0  0  0  0  0  0  0  0  0  0  0
   17.5566   -4.4203    0.0000 C    0  0  0  0  0  0  0  0  0  0  0  0
   13.9987   -6.6485    0.0000 C    0  0  0  0  0  0  0  0  0  0  0  0
   12.7511   -7.1127    0.0000 C    0  0  0  0  0  0  0  0  0  0  0  0
   14.2136   -5.3365    0.0000 C    0  0  0  0  0  0  0  0  0  0  0  0
   11.7262   -6.2604    0.0000 C    0  0  0  0  0  0  0  0  0  0  0  0
   13.1938   -4.4912    0.0000 C    0  0  0  0  0  0  0  0  0  0  0  0
   11.9458   -4.9556    0.0000 C    0  0  0  0  0  0  0  0  0  0  0  0
  1  2  1  0  0  0  0
  1  3  2  0  0  0  0
  2  4  2  0  0  0  0
  3  5  1  0  0  0  0
  4  6  1  0  0  0  0
  5  6  2  0  0  0  0
  8  9  1  0  0  0  0
  8 10  2  0  0  0  0
  9 11  2  0  0  0  0
 10 12  1  0  0  0  0
 11 13  1  0  0  0  0
 12 13  2  0  0  0  0
  7 13  1  0  0  0  0
 11 14  1  0  0  0  0
 12 15  1  0  0  0  0
 14 16  1  0  0  0  0
 15 17  1  0  0  0  0
 18 19  1  0  0  0  0
 18 20  1  0  0  0  0
 19 21  2  0  0  0  0
 20 22  2  0  0  0  0
 21 22  1  0  0  0  0
 16 18  1  0  0  0  0
 23 24  1  0  0  0  0
 23 25  1  0  0  0  0
 24 26  2  0  0  0  0
 25 27  2  0  0  0  0
 26 27  1  0  0  0  0
 16 23  1  0  0  0  0
 28 29  1  0  0  0  0
 28 30  1  0  0  0  0
 29 31  2  0  0  0  0
 30 32  2  0  0  0  0
 31 32  1  0  0  0  0
 17 28  1  0  0  0  0
 33 34  1  0  0  0  0
 33 35  1  0  0  0  0
 34 36  2  0  0  0  0
 35 37  2  0  0  0  0
 36 37  1  0  0  0  0
 17 33  1  0  0  0  0
  7 38  1  0  0  0  0
 39 40  1  0  0  0  0
 39 41  2  0  0  0  0
 40 42  2  0  0  0  0
 41 43  1  0  0  0  0
 42 44  1  0  0  0  0
 43 44  2  0  0  0  0
 38 39  1  0  0  0  0
 45 46  1  0  0  0  0
 45 47  2  0  0  0  0
 46 48  2  0  0  0  0
 47 49  1  0  0  0  0
 48 50  1  0  0  0  0
 49 50  2  0  0  0  0
 38 45  1  0  0  0  0
  3 38  1  0  0  0  0
M  END
> <NMREDATA_VERSION>
1.1

> <NMREDATA_LEVEL>
0

> <NMREDATA_SOLVENT>
THF

> <NMREDATA_TEMPERATURE>
295

> <NMREDATA_FORMULA>
C42H39N4P3Rh

> <NMREDATA_SMILES>
c1ccc(cc1)P(c1ccccc1)(c1ccccc1)[Rh]c1c(cccc1CP(n1cccc1)n1cccc1)CP(n1cccc1)n1cccc1

> <NMREDATA_ASSIGNMENT>
Rh7, -734.00, 7

> <NMREDATA_1D_103Rh>
-734.00, L=Rh7

$$$$
