
  ACD/LABS04012415162D

 48 54  0  0  0  0  0  0  0  0  1 V2000
    9.2046  -13.3819    0.0000 C    0  0  0  0  0  0  0  0  0  0  0  0
    8.1269  -12.6061    0.0000 C    0  0  0  0  0  0  0  0  0  0  0  0
   10.4246  -12.8472    0.0000 C    0  0  0  0  0  0  0  0  0  0  0  0
    8.2661  -11.2836    0.0000 C    0  0  0  0  0  0  0  0  0  0  0  0
   10.5558  -11.5202    0.0000 C    0  0  0  0  0  0  0  0  0  0  0  0
    9.4828  -10.7368    0.0000 C    0  0  0  0  0  0  0  0  0  0  0  0
   14.7070   -9.1357    0.0000 C    0  0  0  0  0  0  0  0  0  0  0  0
   14.3873   -7.8452    0.0000 C    0  0  0  0  0  0  0  0  0  0  0  0
   13.7508  -10.0473    0.0000 C    0  0  0  0  0  0  0  0  0  0  0  0
   13.1144   -7.4791    0.0000 C    0  0  0  0  0  0  0  0  0  0  0  0
   12.4779   -9.6812    0.0000 C    0  0  0  0  0  0  0  0  0  0  0  0
   12.1535   -8.3986    0.0000 C    0  0  0  0  0  0  0  0  0  0  0  0
   17.3068  -11.4252    0.0000 C    0  0  0  0  0  0  0  0  0  0  0  0
   15.9816  -11.4684    0.0000 C    0  0  0  0  0  0  0  0  0  0  0  0
   17.9256  -10.2466    0.0000 C    0  0  0  0  0  0  0  0  0  0  0  0
   15.2660  -10.3492    0.0000 C    0  0  0  0  0  0  0  0  0  0  0  0
   17.2223   -9.1239    0.0000 C    0  0  0  0  0  0  0  0  0  0  0  0
   15.8926   -9.1750    0.0000 C    0  0  0  0  0  0  0  0  0  0  0  0
   12.4286  -11.5570    0.0000 Rh   0  0  0  0  0  0  0  0  0  0  0  0
   13.6804  -12.0136    0.0000 Cl   0  0  0  0  0  0  0  0  0  0  0  0
   11.2418  -12.1416    0.0000 O    0  0  0  0  0  0  0  0  0  0  0  0
   11.1344  -13.4616    0.0000 O    0  0  0  0  0  0  0  0  0  0  0  0
   15.1815   -8.0479    0.0000 P    0  0  0  0  0  0  0  0  0  0  0  0
   11.5170  -10.6008    0.0000 P    0  0  0  0  0  0  0  0  0  0  0  0
   12.8331  -12.8247    0.0000 C    0  0  0  0  0  0  0  0  0  0  0  0
   11.9403  -13.8041    0.0000 N    0  0  0  0  0  0  0  0  0  0  0  0
   14.1354  -13.1055    0.0000 C    0  0  0  0  0  0  0  0  0  0  0  0
   12.3448  -15.0717    0.0000 C    0  0  0  0  0  0  0  0  0  0  0  0
   14.5399  -14.3731    0.0000 C    0  0  0  0  0  0  0  0  0  0  0  0
   13.6468  -15.3524    0.0000 C    0  0  0  0  0  0  0  0  0  0  0  0
   10.5972   -9.6397    0.0000 C    0  0  0  0  0  0  0  0  0  0  0  0
   10.9682   -8.3591    0.0000 C    0  0  0  0  0  0  0  0  0  0  0  0
    9.3069   -9.9597    0.0000 C    0  0  0  0  0  0  0  0  0  0  0  0
   10.0397   -7.4136    0.0000 C    0  0  0  0  0  0  0  0  0  0  0  0
    8.3873   -8.9988    0.0000 C    0  0  0  0  0  0  0  0  0  0  0  0
    8.7582   -7.7176    0.0000 C    0  0  0  0  0  0  0  0  0  0  0  0
   17.8238   -5.7233    0.0000 C    0  0  0  0  0  0  0  0  0  0  0  0
   18.8793   -6.5376    0.0000 C    0  0  0  0  0  0  0  0  0  0  0  0
   16.5944   -6.2217    0.0000 C    0  0  0  0  0  0  0  0  0  0  0  0
   18.7006   -7.8579    0.0000 C    0  0  0  0  0  0  0  0  0  0  0  0
   16.4157   -7.5420    0.0000 C    0  0  0  0  0  0  0  0  0  0  0  0
   17.4712   -8.3563    0.0000 C    0  0  0  0  0  0  0  0  0  0  0  0
   15.3875   -4.6239    0.0000 C    0  0  0  0  0  0  0  0  0  0  0  0
   14.1244   -4.2224    0.0000 C    0  0  0  0  0  0  0  0  0  0  0  0
   15.6628   -5.9196    0.0000 C    0  0  0  0  0  0  0  0  0  0  0  0
   13.1370   -5.1168    0.0000 C    0  0  0  0  0  0  0  0  0  0  0  0
   14.6833   -6.8181    0.0000 C    0  0  0  0  0  0  0  0  0  0  0  0
   13.4205   -6.4168    0.0000 C    0  0  0  0  0  0  0  0  0  0  0  0
  1  2  1  0  0  0  0
  1  3  2  0  0  0  0
  2  4  2  0  0  0  0
  3  5  1  0  0  0  0
  4  6  1  0  0  0  0
  5  6  2  0  0  0  0
  7  8  1  0  0  0  0
  7  9  2  0  0  0  0
  8 10  2  0  0  0  0
  9 11  1  0  0  0  0
 10 12  1  0  0  0  0
 11 12  2  0  0  0  0
 13 14  1  0  0  0  0
 13 15  2  0  0  0  0
 14 16  2  0  0  0  0
 15 17  1  0  0  0  0
 16 18  1  0  0  0  0
 17 18  2  0  0  0  0
 19 20  1  0  0  0  0
 19 21  1  0  0  0  0
 21 22  2  0  0  0  0
 19 23  1  0  0  0  0
 19 24  1  0  0  0  0
 25 26  1  0  0  0  0
 25 27  2  0  0  0  0
 26 28  2  0  0  0  0
 27 29  1  0  0  0  0
 28 30  1  0  0  0  0
 29 30  2  0  0  0  0
 19 25  1  0  0  0  0
 31 32  1  0  0  0  0
 31 33  2  0  0  0  0
 32 34  2  0  0  0  0
 33 35  1  0  0  0  0
 34 36  1  0  0  0  0
 35 36  2  0  0  0  0
 24 31  1  0  0  0  0
 18 23  1  0  0  0  0
 37 38  1  0  0  0  0
 37 39  2  0  0  0  0
 38 40  2  0  0  0  0
 39 41  1  0  0  0  0
 40 42  1  0  0  0  0
 41 42  2  0  0  0  0
 23 41  1  0  0  0  0
 43 44  1  0  0  0  0
 43 45  2  0  0  0  0
 44 46  2  0  0  0  0
 45 47  1  0  0  0  0
 46 48  1  0  0  0  0
 47 48  2  0  0  0  0
 23 47  1  0  0  0  0
 11 24  1  0  0  0  0
  5 24  1  0  0  0  0
M  END
> <NMREDATA_VERSION>
1.1

> <NMREDATA_LEVEL>
0

> <NMREDATA_SOLVENT>
DCCl3

> <NMREDATA_TEMPERATURE>
300

> <NMREDATA_FORMULA>
C41H36ClNO2P2Rh

> <NMREDATA_SMILES>
O=[O][Rh](P(c1ccccc1)(c1ccccc1)c1ccccc1)(P(c1ccccc1)(c1ccccc1)c1ccccc1)(c1ccccn1)Cl

> <NMREDATA_ASSIGNMENT>
Rh19, 3374.00, 19

> <NMREDATA_1D_103Rh>
3374.00, L=Rh19

$$$$
