
  ACD/LABS03132411252D

 61 69  0  0  0  0  0  0  0  0  1 V2000
   20.6039  -14.8659    0.0000 C    0  0  0  0  0  0  0  0  0  0  0  0
   20.6043  -16.1965    0.0000 C    0  0  0  0  0  0  0  0  0  0  0  0
   19.4515  -14.1999    0.0000 C    0  0  0  0  0  0  0  0  0  0  0  0
   19.4522  -16.8617    0.0000 C    0  0  0  0  0  0  0  0  0  0  0  0
   18.2994  -14.8650    0.0000 C    0  0  0  0  0  0  0  0  0  0  0  0
   18.3000  -16.1960    0.0000 C    0  0  0  0  0  0  0  0  0  0  0  0
   19.8090  -19.1644    0.0000 C    0  0  0  0  0  0  0  0  0  0  0  0
   19.1441  -18.0127    0.0000 C    0  0  0  0  0  0  0  0  0  0  0  0
   19.1432  -20.3172    0.0000 C    0  0  0  0  0  0  0  0  0  0  0  0
   17.8129  -18.0130    0.0000 C    0  0  0  0  0  0  0  0  0  0  0  0
   17.8200  -20.3128    0.0000 C    0  0  0  0  0  0  0  0  0  0  0  0
   17.1550  -19.1611    0.0000 C    0  0  0  0  0  0  0  0  0  0  0  0
   15.9962  -17.5262    0.0000 C    0  0  0  0  0  0  0  0  0  0  0  0
   15.9962  -18.8570    0.0000 C    0  0  0  0  0  0  0  0  0  0  0  0
   14.8434  -16.8603    0.0000 C    0  0  0  0  0  0  0  0  0  0  0  0
   14.8525  -19.5173    0.0000 C    0  0  0  0  0  0  0  0  0  0  0  0
   13.6997  -17.5207    0.0000 C    0  0  0  0  0  0  0  0  0  0  0  0
   13.7003  -18.8517    0.0000 C    0  0  0  0  0  0  0  0  0  0  0  0
   17.1479  -16.8612    0.0000 P    0  0  0  0  0  0  0  0  0  0  0  0
    8.6173  -22.2676    0.0000 C    0  0  0  0  0  0  0  0  0  0  0  0
    9.8642  -22.7251    0.0000 C    0  0  0  0  0  0  0  0  0  0  0  0
    8.3833  -20.9585    0.0000 C    0  0  0  0  0  0  0  0  0  0  0  0
   10.8854  -21.8692    0.0000 C    0  0  0  0  0  0  0  0  0  0  0  0
    9.4049  -20.1024    0.0000 C    0  0  0  0  0  0  0  0  0  0  0  0
   10.6520  -20.5603    0.0000 C    0  0  0  0  0  0  0  0  0  0  0  0
   14.6907  -21.5255    0.0000 C    0  0  0  0  0  0  0  0  0  0  0  0
   13.8352  -20.5041    0.0000 C    0  0  0  0  0  0  0  0  0  0  0  0
   14.2334  -22.7728    0.0000 C    0  0  0  0  0  0  0  0  0  0  0  0
   12.5291  -20.7256    0.0000 C    0  0  0  0  0  0  0  0  0  0  0  0
   12.9200  -22.9985    0.0000 C    0  0  0  0  0  0  0  0  0  0  0  0
   12.0762  -21.9805    0.0000 C    0  0  0  0  0  0  0  0  0  0  0  0
   10.8221  -18.6906    0.0000 C    0  0  0  0  0  0  0  0  0  0  0  0
   11.2794  -17.4434    0.0000 C    0  0  0  0  0  0  0  0  0  0  0  0
    9.5084  -18.9166    0.0000 C    0  0  0  0  0  0  0  0  0  0  0  0
   10.4282  -16.4302    0.0000 C    0  0  0  0  0  0  0  0  0  0  0  0
    8.6616  -17.9110    0.0000 C    0  0  0  0  0  0  0  0  0  0  0  0
    9.1148  -16.6559    0.0000 C    0  0  0  0  0  0  0  0  0  0  0  0
   11.6776  -19.7121    0.0000 P    0  0  0  0  0  0  0  0  0  0  0  0
   10.8813   -9.3588    0.0000 C    0  0  0  0  0  0  0  0  0  0  0  0
   12.1826   -9.1298    0.0000 C    0  0  0  0  0  0  0  0  0  0  0  0
   10.4240  -10.6061    0.0000 C    0  0  0  0  0  0  0  0  0  0  0  0
   13.0387  -10.1514    0.0000 C    0  0  0  0  0  0  0  0  0  0  0  0
   11.2719  -11.6319    0.0000 C    0  0  0  0  0  0  0  0  0  0  0  0
   12.5812  -11.3983    0.0000 C    0  0  0  0  0  0  0  0  0  0  0  0
   10.1550  -13.6695    0.0000 C    0  0  0  0  0  0  0  0  0  0  0  0
   11.1766  -12.8135    0.0000 C    0  0  0  0  0  0  0  0  0  0  0  0
   10.3843  -14.9706    0.0000 C    0  0  0  0  0  0  0  0  0  0  0  0
   12.4155  -13.2756    0.0000 C    0  0  0  0  0  0  0  0  0  0  0  0
   11.6312  -15.4281    0.0000 C    0  0  0  0  0  0  0  0  0  0  0  0
   12.6491  -14.5849    0.0000 C    0  0  0  0  0  0  0  0  0  0  0  0
   14.4583  -11.5636    0.0000 C    0  0  0  0  0  0  0  0  0  0  0  0
   14.2249  -10.2547    0.0000 C    0  0  0  0  0  0  0  0  0  0  0  0
   15.7054  -12.0215    0.0000 C    0  0  0  0  0  0  0  0  0  0  0  0
   15.2505   -9.4065    0.0000 C    0  0  0  0  0  0  0  0  0  0  0  0
   16.7314  -11.1731    0.0000 C    0  0  0  0  0  0  0  0  0  0  0  0
   16.4980   -9.8641    0.0000 C    0  0  0  0  0  0  0  0  0  0  0  0
   16.3042  -15.8426    0.0000 Rh   0  0  0  0  0  0  0  0  0  0  0  0
   13.4371  -12.4195    0.0000 P    0  0  0  0  0  0  0  0  0  0  0  0
   17.3262  -14.9914    0.0000 N    0  0  0  0  0  0  0  0  0  0  0  0
   17.1000  -13.6808    0.0000 C    0  0  0  0  0  0  0  0  0  0  0  0
   16.8738  -12.3702    0.0000 O    0  0  0  0  0  0  0  0  0  0  0  0
  1  2  1  0  0  0  0
  1  3  2  0  0  0  0
  2  4  2  0  0  0  0
  3  5  1  0  0  0  0
  4  6  1  0  0  0  0
  5  6  2  0  0  0  0
  7  8  1  0  0  0  0
  7  9  2  0  0  0  0
  8 10  2  0  0  0  0
  9 11  1  0  0  0  0
 10 12  1  0  0  0  0
 11 12  2  0  0  0  0
 13 14  1  0  0  0  0
 13 15  2  0  0  0  0
 14 16  2  0  0  0  0
 15 17  1  0  0  0  0
 16 18  1  0  0  0  0
 17 18  2  0  0  0  0
 13 19  1  0  0  0  0
 10 19  1  0  0  0  0
  6 19  1  0  0  0  0
 20 21  1  0  0  0  0
 20 22  2  0  0  0  0
 21 23  2  0  0  0  0
 22 24  1  0  0  0  0
 23 25  1  0  0  0  0
 24 25  2  0  0  0  0
 26 27  1  0  0  0  0
 26 28  2  0  0  0  0
 27 29  2  0  0  0  0
 28 30  1  0  0  0  0
 29 31  1  0  0  0  0
 30 31  2  0  0  0  0
 32 33  1  0  0  0  0
 32 34  2  0  0  0  0
 33 35  2  0  0  0  0
 34 36  1  0  0  0  0
 35 37  1  0  0  0  0
 36 37  2  0  0  0  0
 32 38  1  0  0  0  0
 29 38  1  0  0  0  0
 25 38  1  0  0  0  0
 39 40  1  0  0  0  0
 39 41  2  0  0  0  0
 40 42  2  0  0  0  0
 41 43  1  0  0  0  0
 42 44  1  0  0  0  0
 43 44  2  0  0  0  0
 45 46  1  0  0  0  0
 45 47  2  0  0  0  0
 46 48  2  0  0  0  0
 47 49  1  0  0  0  0
 48 50  1  0  0  0  0
 49 50  2  0  0  0  0
 51 52  1  0  0  0  0
 51 53  2  0  0  0  0
 52 54  2  0  0  0  0
 53 55  1  0  0  0  0
 54 56  1  0  0  0  0
 55 56  2  0  0  0  0
 57 58  1  0  0  0  0
 51 58  1  0  0  0  0
 48 58  1  0  0  0  0
 44 58  1  0  0  0  0
 38 57  1  0  0  0  0
 19 57  1  0  0  0  0
 59 60  2  0  0  0  0
 60 61  2  0  0  0  0
 57 59  1  0  0  0  0
M  END
> <NMREDATA_VERSION>
1.1

> <NMREDATA_LEVEL>
0

> <NMREDATA_SOLVENT>
DCCl3

> <NMREDATA_TEMPERATURE>
300

> <NMREDATA_FORMULA>
C55H48NOP3Rh

> <NMREDATA_SMILES>
O=C=N[Rh](P(c1ccccc1)(c1ccccc1)c1ccccc1)(P(c1ccccc1)(c1ccccc1)c1ccccc1)P(c1ccccc1)(c1ccccc1)c1ccccc1

> <NMREDATA_ASSIGNMENT>
Rh57, -168.00, 57

> <NMREDATA_1D_103Rh>
-168.00, L=Rh57

$$$$
