
  ACD/LABS03112411142D

 37 39  0  0  0  0  0  0  0  0  2 V2000
   11.3675  -18.0538    0.0000 C    0  0  0  0  0  0  0  0  0  0  0  0
   12.0327  -19.2055    0.0000 C    0  0  0  0  0  0  0  0  0  0  0  0
   12.0322  -16.9026    0.0000 C    0  0  0  0  0  0  0  0  0  0  0  0
   13.3630  -19.2059    0.0000 C    0  0  0  0  0  0  0  0  0  0  0  0
   13.3622  -16.9029    0.0000 C    0  0  0  0  0  0  0  0  0  0  0  0
   14.0277  -18.0547    0.0000 C    0  0  0  0  0  0  0  0  0  0  0  0
   16.1861  -14.9721    0.0000 C    0  0  0  0  0  0  0  0  0  0  0  0
   17.0413  -13.9516    0.0000 C    0  0  0  0  0  0  0  0  0  0  0  0
   14.8776  -14.7388    0.0000 C    0  0  0  0  0  0  0  0  0  0  0  0
   16.5766  -12.7006    0.0000 C    0  0  0  0  0  0  0  0  0  0  0  0
   14.4205  -13.4923    0.0000 C    0  0  0  0  0  0  0  0  0  0  0  0
   15.2758  -12.4717    0.0000 C    0  0  0  0  0  0  0  0  0  0  0  0
   11.0051  -13.7719    0.0000 N    0  0  0  0  0  0  0  0  0  0  0  0
   11.5470  -12.5499    0.0000 C    0  0  0  0  0  0  0  0  0  0  0  0
    9.6910  -13.6374    0.0000 N    0  0  0  0  0  0  0  0  0  0  0  0
   10.5516  -11.6681    0.0000 C    0  0  0  0  0  0  0  0  0  0  0  0
    9.4075  -12.3380    0.0000 C    0  0  0  0  0  0  0  0  0  0  0  0
    8.1887  -11.8083    0.0000 C    0  0  0  0  0  0  0  0  0  0  0  0
   12.8422  -12.2743    0.0000 C    0  0  0  0  0  0  0  0  0  0  0  0
   13.0018  -14.9041    0.0000 Rh   0  3  0  0  0  0  0  0  0  0  0  0
   11.6827  -14.9205    0.0000 C    0  0  0  0  0  0  0  0  0  0  0  0
   10.8394  -15.9377    0.0000 N    0  0  0  0  0  0  0  0  0  0  0  0
    9.5107  -15.8461    0.0000 C    0  0  0  0  0  0  0  0  0  0  0  0
   11.1713  -17.2243    0.0000 N    0  0  0  0  0  0  0  0  0  0  0  0
    9.0195  -17.0871    0.0000 C    0  0  0  0  0  0  0  0  0  0  0  0
   10.0448  -17.9348    0.0000 C    0  0  0  0  0  0  0  0  0  0  0  0
    9.9649  -19.2604    0.0000 C    0  0  0  0  0  0  0  0  0  0  0  0
    8.7958  -14.7270    0.0000 C    0  0  0  0  0  0  0  0  0  0  0  0
   14.0222  -15.7597    0.0000 P    0  0  0  0  0  0  0  0  0  0  0  0
   13.4532  -13.6607    0.0000 C    0  0  0  0  0  0  0  0  0  0  0  0
   13.9099  -12.4097    0.0000 O    0  0  0  0  0  0  0  0  0  0  0  0
   15.5113  -16.6330    0.0000 C    0  0  0  0  0  0  0  0  0  0  0  0
   24.6130  -14.9665    0.0000 B    0  5  0  0  0  0  0  0  0  0  0  0
   24.6130  -13.5884    0.0000 F    0  0  0  0  0  0  0  0  0  0  0  0
   25.9911  -14.9665    0.0000 F    0  0  0  0  0  0  0  0  0  0  0  0
   23.2349  -14.9665    0.0000 F    0  0  0  0  0  0  0  0  0  0  0  0
   24.6130  -16.3446    0.0000 F    0  0  0  0  0  0  0  0  0  0  0  0
  1  2  1  0  0  0  0
  1  3  2  0  0  0  0
  2  4  2  0  0  0  0
  3  5  1  0  0  0  0
  4  6  1  0  0  0  0
  5  6  2  0  0  0  0
  7  8  1  0  0  0  0
  7  9  2  0  0  0  0
  8 10  2  0  0  0  0
  9 11  1  0  0  0  0
 10 12  1  0  0  0  0
 11 12  2  0  0  0  0
 13 14  1  0  0  0  0
 13 15  1  0  0  0  0
 14 16  2  0  0  0  0
 15 17  2  0  0  0  0
 16 17  1  0  0  0  0
 17 18  1  0  0  0  0
 14 19  1  0  0  0  0
 20 21  1  0  0  0  0
 22 23  1  0  0  0  0
 22 24  1  0  0  0  0
 23 25  2  0  0  0  0
 24 26  2  0  0  0  0
 25 26  1  0  0  0  0
 21 22  1  0  0  0  0
 26 27  1  0  0  0  0
 23 28  1  0  0  0  0
 13 21  1  0  0  0  0
 20 29  1  0  0  0  0
  9 29  1  0  0  0  0
  5 29  1  0  0  0  0
 20 30  1  0  0  0  0
 30 31  3  0  0  0  0
 29 32  1  0  0  0  0
 33 34  1  0  0  0  0
 33 35  1  0  0  0  0
 33 36  1  0  0  0  0
 33 37  1  0  0  0  0
M  END
> <NMREDATA_VERSION>
1.1

> <NMREDATA_LEVEL>
0

> <NMREDATA_SOLVENT>
acetone

> <NMREDATA_TEMPERATURE>
298

> <NMREDATA_FORMULA>
C25H29BF4N4OPRh

> <NMREDATA_SMILES>
F[B](F)(F)F.[O]#C[Rh](P(c1ccccc1)(c1ccccc1)C)C(n1nc(cc1C)C)n1nc(cc1C)C

> <NMREDATA_ASSIGNMENT>
Rh20, -175.00, 20

> <NMREDATA_1D_103Rh>
-175.00, L=Rh20

$$$$
