
  ACD/LABS03222418052D

 17 17  0  0  0  0  0  0  0  0  1 V2000
   15.8198   -7.3551    0.0000 Rh   0  0  0  0  0  0  0  0  0  0  0  0
   17.1498   -7.3551    0.0000 C    0  0  0  0  0  0  0  0  0  0  0  0
   17.8148   -6.2032    0.0000 C    0  0  0  0  0  0  0  0  0  0  0  0
   17.8148   -8.5069    0.0000 C    0  0  0  0  0  0  0  0  0  0  0  0
   19.1448   -6.2032    0.0000 C    0  0  0  0  0  0  0  0  0  0  0  0
   19.1448   -8.5069    0.0000 C    0  0  0  0  0  0  0  0  0  0  0  0
   19.8098   -7.3551    0.0000 C    0  0  0  0  0  0  0  0  0  0  0  0
   17.1498   -5.0514    0.0000 C    0  0  0  0  0  0  0  0  0  0  0  0
   17.8148   -3.8996    0.0000 N    0  0  0  0  0  0  0  0  0  0  0  0
   17.1498   -2.7478    0.0000 C    0  0  0  0  0  0  0  0  0  0  0  0
   19.1448   -3.8996    0.0000 C    0  0  0  0  0  0  0  0  0  0  0  0
   17.1498   -9.6587    0.0000 C    0  0  0  0  0  0  0  0  0  0  0  0
   17.8148  -10.8105    0.0000 N    0  0  0  0  0  0  0  0  0  0  0  0
   19.1448  -10.8105    0.0000 C    0  0  0  0  0  0  0  0  0  0  0  0
   17.1498  -11.9623    0.0000 C    0  0  0  0  0  0  0  0  0  0  0  0
   15.1548   -6.2032    0.0000 C    0  0  0  0  0  0  0  0  0  0  0  0
   15.1548   -8.5069    0.0000 I    0  0  0  0  0  0  0  0  0  0  0  0
  2  3  1  0  0  0  0
  2  4  2  0  0  0  0
  3  5  2  0  0  0  0
  4  6  1  0  0  0  0
  5  7  1  0  0  0  0
  6  7  2  0  0  0  0
  1  2  1  0  0  0  0
  3  8  1  0  0  0  0
  8  9  1  0  0  0  0
  9 10  1  0  0  0  0
  9 11  1  0  0  0  0
  4 12  1  0  0  0  0
 12 13  1  0  0  0  0
 13 14  1  0  0  0  0
 13 15  1  0  0  0  0
  1 16  1  0  0  0  0
  1 17  1  0  0  0  0
M  END
> <NMREDATA_VERSION>
1.1

> <NMREDATA_LEVEL>
0

> <NMREDATA_SOLVENT>
C6D6

> <NMREDATA_TEMPERATURE>
295

> <NMREDATA_FORMULA>
C13H22IN2Rh

> <NMREDATA_SMILES>
CN(Cc1cccc(c1[Rh](I)C)CN(C)C)C

> <NMREDATA_ASSIGNMENT>
Rh1, 3179.00, 1

> <NMREDATA_1D_103Rh>
3179.00, L=Rh1

$$$$
