
  ACD/LABS04022410242D

 22 18  0  0  0  0  0  0  0  0  3 V2000
   17.4055  -17.6693    0.0000 N    0  0  0  0  0  0  0  0  0  0  0  0
   16.2523  -16.9994    0.0000 O    0  5  0  0  0  0  0  0  0  0  0  0
   17.3960  -16.3346    0.0000 O    0  0  0  0  0  0  0  0  0  0  0  0
   18.7686  -20.0736    0.0000 N    0  0  0  0  0  0  0  0  0  0  0  0
   19.9542  -20.7064    0.0000 O    0  5  0  0  0  0  0  0  0  0  0  0
   18.7245  -21.4028    0.0000 O    0  0  0  0  0  0  0  0  0  0  0  0
   19.4910  -18.8289    0.0000 N    0  0  0  0  0  0  0  0  0  0  0  0
   20.6221  -18.1324    0.0000 O    0  5  0  0  0  0  0  0  0  0  0  0
   20.6374  -19.5359    0.0000 O    0  0  0  0  0  0  0  0  0  0  0  0
   18.0881  -18.8515    0.0000 Rh   0  7  0  0  0  0  0  0  0  0  0  0
   17.2157  -20.2547    0.0000 N    0  0  0  0  0  0  0  0  0  0  0  0
   16.0423  -20.8036    0.0000 O    0  5  0  0  0  0  0  0  0  0  0  0
   17.3702  -21.5566    0.0000 O    0  0  0  0  0  0  0  0  0  0  0  0
   16.4315  -18.8237    0.0000 N    0  0  0  0  0  0  0  0  0  0  0  0
   15.3567  -18.0652    0.0000 O    0  5  0  0  0  0  0  0  0  0  0  0
   15.3847  -19.5836    0.0000 O    0  0  0  0  0  0  0  0  0  0  0  0
   18.8845  -17.3928    0.0000 N    0  0  0  0  0  0  0  0  0  0  0  0
   18.7710  -16.0840    0.0000 O    0  5  0  0  0  0  0  0  0  0  0  0
   20.0844  -16.8727    0.0000 O    0  0  0  0  0  0  0  0  0  0  0  0
   26.9846  -14.8864    0.0000 Na   0  3  0  0  0  0  0  0  0  0  0  0
   26.9045  -15.9600    0.0000 Na   0  3  0  0  0  0  0  0  0  0  0  0
   28.6511  -16.0081    0.0000 Na   0  3  0  0  0  0  0  0  0  0  0  0
  1  2  1  0  0  0  0
  1  3  2  0  0  0  0
  4  5  1  0  0  0  0
  4  6  2  0  0  0  0
  7  8  1  0  0  0  0
  7  9  2  0  0  0  0
 11 12  1  0  0  0  0
 11 13  2  0  0  0  0
 10 11  1  0  0  0  0
 14 15  1  0  0  0  0
 14 16  2  0  0  0  0
 10 14  1  0  0  0  0
 17 18  1  0  0  0  0
 17 19  2  0  0  0  0
 10 17  1  0  0  0  0
  7 10  1  0  0  0  0
  4 10  1  0  0  0  0
  1 10  1  0  0  0  0
M  END
> <NMREDATA_VERSION>
1.1

> <NMREDATA_LEVEL>
0

> <NMREDATA_SOLVENT>
H2O

> <NMREDATA_TEMPERATURE>
298

> <NMREDATA_FORMULA>
H15N6Na3O12Rh

> <NMREDATA_SMILES>
ON(=O)[Rh](N(=O)O)(N(=O)O)(N(=O)O)(N(=O)O)N(=O)O.[NaH].[NaH].[NaH]

> <NMREDATA_ASSIGNMENT>
Rh10, 5580.00, 10

> <NMREDATA_1D_103Rh>
5580.00, L=Rh10

$$$$
