
  ACD/LABS03092411092D

 66 75  0  0  0  0  0  0  0  0  2 V2000
   16.3728  -11.4733    0.0000 C    0  0  0  0  0  0  0  0  0  0  0  0
   16.3728  -12.8033    0.0000 C    0  0  0  0  0  0  0  0  0  0  0  0
   15.2209  -10.8083    0.0000 C    0  0  0  0  0  0  0  0  0  0  0  0
   15.2209  -13.4683    0.0000 N    0  0  0  0  0  0  0  0  0  0  0  0
   14.0692  -11.4733    0.0000 C    0  0  0  0  0  0  0  0  0  0  0  0
   14.0692  -12.8033    0.0000 C    0  0  0  0  0  0  0  0  0  0  0  0
   14.0673   -0.7291    0.0000 C    0  0  0  0  0  0  0  0  0  0  0  0
   14.0673   -2.0591    0.0000 C    0  0  0  0  0  0  0  0  0  0  0  0
   12.9154   -0.0641    0.0000 C    0  0  0  0  0  0  0  0  0  0  0  0
   12.9154   -2.7241    0.0000 C    0  0  0  0  0  0  0  0  0  0  0  0
   11.7636   -0.7291    0.0000 C    0  0  0  0  0  0  0  0  0  0  0  0
   11.7636   -2.0591    0.0000 C    0  0  0  0  0  0  0  0  0  0  0  0
   10.7984   -1.0816    0.0000 C    0  0  0  0  0  0  0  0  0  0  0  0
   10.7984   -2.4116    0.0000 C    0  0  0  0  0  0  0  0  0  0  0  0
    9.6464   -0.4166    0.0000 C    0  0  0  0  0  0  0  0  0  0  0  0
    9.6464   -3.0766    0.0000 C    0  0  0  0  0  0  0  0  0  0  0  0
    8.4947   -1.0816    0.0000 C    0  0  0  0  0  0  0  0  0  0  0  0
    8.4947   -2.4116    0.0000 C    0  0  0  0  0  0  0  0  0  0  0  0
    7.7377   -2.6840    0.0000 C    0  0  0  0  0  0  0  0  0  0  0  0
    7.7377   -4.0140    0.0000 C    0  0  0  0  0  0  0  0  0  0  0  0
    6.5858   -2.0190    0.0000 C    0  0  0  0  0  0  0  0  0  0  0  0
    6.5858   -4.6790    0.0000 C    0  0  0  0  0  0  0  0  0  0  0  0
    5.4341   -2.6840    0.0000 C    0  0  0  0  0  0  0  0  0  0  0  0
    5.4341   -4.0140    0.0000 C    0  0  0  0  0  0  0  0  0  0  0  0
   11.3911   -7.8984    0.0000 P    0  0  0  0  0  0  0  0  0  0  0  0
   10.7261   -6.7466    0.0000 C    0  0  0  0  0  0  0  0  0  0  0  0
   11.3916   -5.5947    0.0000 C    0  0  0  0  0  0  0  0  0  0  0  0
    9.3955   -6.7472    0.0000 C    0  0  0  0  0  0  0  0  0  0  0  0
   10.7266   -4.4429    0.0000 C    0  0  0  0  0  0  0  0  0  0  0  0
    8.7305   -5.5954    0.0000 C    0  0  0  0  0  0  0  0  0  0  0  0
    9.3963   -4.4433    0.0000 C    0  0  0  0  0  0  0  0  0  0  0  0
   12.0559   -9.0498    0.0000 C    0  0  0  0  0  0  0  0  0  0  0  0
   13.3864   -9.0498    0.0000 C    0  0  0  0  0  0  0  0  0  0  0  0
   11.3903  -10.2022    0.0000 C    0  0  0  0  0  0  0  0  0  0  0  0
   14.0466  -10.1932    0.0000 C    0  0  0  0  0  0  0  0  0  0  0  0
   12.0504  -11.3457    0.0000 C    0  0  0  0  0  0  0  0  0  0  0  0
   13.3811  -11.3450    0.0000 C    0  0  0  0  0  0  0  0  0  0  0  0
    7.9361   -9.8931    0.0000 C    0  0  0  0  0  0  0  0  0  0  0  0
    7.9354   -8.5625    0.0000 C    0  0  0  0  0  0  0  0  0  0  0  0
    9.0835  -10.5510    0.0000 C    0  0  0  0  0  0  0  0  0  0  0  0
    9.0873   -7.8975    0.0000 C    0  0  0  0  0  0  0  0  0  0  0  0
   10.2353   -9.8860    0.0000 C    0  0  0  0  0  0  0  0  0  0  0  0
   10.2393   -8.5634    0.0000 C    0  0  0  0  0  0  0  0  0  0  0  0
   13.1938   -6.9361    0.0000 Rh   0  5  0  0  0  0  0  0  0  0  0  0
   12.4716   -6.0103    0.0000 C    0  0  0  0  0  0  0  0  0  0  0  0
   11.7319   -4.9250    0.0000 N    0  3  0  0  0  0  0  0  0  0  0  0
   15.3548   -6.4492    0.0000 P    0  0  0  0  0  0  0  0  0  0  0  0
   15.8071   -7.6928    0.0000 C    0  0  0  0  0  0  0  0  0  0  0  0
   17.1200   -7.9280    0.0000 C    0  0  0  0  0  0  0  0  0  0  0  0
   14.9548   -8.7173    0.0000 C    0  0  0  0  0  0  0  0  0  0  0  0
   17.5673   -9.1639    0.0000 C    0  0  0  0  0  0  0  0  0  0  0  0
   15.4065   -9.9608    0.0000 C    0  0  0  0  0  0  0  0  0  0  0  0
   16.7153  -10.1881    0.0000 C    0  0  0  0  0  0  0  0  0  0  0  0
   14.8984   -5.1978    0.0000 C    0  0  0  0  0  0  0  0  0  0  0  0
   13.5900   -4.9702    0.0000 C    0  0  0  0  0  0  0  0  0  0  0  0
   15.7431   -4.1777    0.0000 C    0  0  0  0  0  0  0  0  0  0  0  0
   13.1260   -3.7231    0.0000 C    0  0  0  0  0  0  0  0  0  0  0  0
   15.2862   -2.9260    0.0000 C    0  0  0  0  0  0  0  0  0  0  0  0
   13.9779   -2.6988    0.0000 C    0  0  0  0  0  0  0  0  0  0  0  0
   19.0975   -5.0768    0.0000 C    0  0  0  0  0  0  0  0  0  0  0  0
   18.8703   -6.3850    0.0000 C    0  0  0  0  0  0  0  0  0  0  0  0
   18.0810   -4.2199    0.0000 C    0  0  0  0  0  0  0  0  0  0  0  0
   17.6189   -6.8414    0.0000 C    0  0  0  0  0  0  0  0  0  0  0  0
   16.8292   -4.6764    0.0000 C    0  0  0  0  0  0  0  0  0  0  0  0
   16.6022   -5.9850    0.0000 C    0  0  0  0  0  0  0  0  0  0  0  0
   10.7201   -3.4772    0.0000 B    0  0  0  0  0  0  0  0  0  0  0  0
  1  2  1  0  0  0  0
  1  3  2  0  0  0  0
  2  4  2  0  0  0  0
  3  5  1  0  0  0  0
  4  6  1  0  0  0  0
  5  6  2  0  0  0  0
  7  8  1  0  0  0  0
  7  9  2  0  0  0  0
  8 10  2  0  0  0  0
  9 11  1  0  0  0  0
 10 12  1  0  0  0  0
 11 12  2  0  0  0  0
 13 14  1  0  0  0  0
 13 15  2  0  0  0  0
 14 16  2  0  0  0  0
 15 17  1  0  0  0  0
 16 18  1  0  0  0  0
 17 18  2  0  0  0  0
 19 20  1  0  0  0  0
 19 21  2  0  0  0  0
 20 22  2  0  0  0  0
 21 23  1  0  0  0  0
 22 24  1  0  0  0  0
 23 24  2  0  0  0  0
 26 27  1  0  0  0  0
 26 28  2  0  0  0  0
 27 29  2  0  0  0  0
 28 30  1  0  0  0  0
 29 31  1  0  0  0  0
 30 31  2  0  0  0  0
 25 26  1  0  0  0  0
 32 33  1  0  0  0  0
 32 34  2  0  0  0  0
 33 35  2  0  0  0  0
 34 36  1  0  0  0  0
 35 37  1  0  0  0  0
 36 37  2  0  0  0  0
 25 32  1  0  0  0  0
 38 39  1  0  0  0  0
 38 40  2  0  0  0  0
 39 41  2  0  0  0  0
 40 42  1  0  0  0  0
 41 43  1  0  0  0  0
 42 43  2  0  0  0  0
 25 43  1  0  0  0  0
 45 46  3  0  0  0  0
 44 45  1  0  0  0  0
 44 47  1  0  0  0  0
 48 49  1  0  0  0  0
 48 50  2  0  0  0  0
 49 51  2  0  0  0  0
 50 52  1  0  0  0  0
 51 53  1  0  0  0  0
 52 53  2  0  0  0  0
 47 48  1  0  0  0  0
 54 55  1  0  0  0  0
 54 56  2  0  0  0  0
 55 57  2  0  0  0  0
 56 58  1  0  0  0  0
 57 59  1  0  0  0  0
 58 59  2  0  0  0  0
 47 54  1  0  0  0  0
 60 61  1  0  0  0  0
 60 62  2  0  0  0  0
 61 63  2  0  0  0  0
 62 64  1  0  0  0  0
 63 65  1  0  0  0  0
 64 65  2  0  0  0  0
 47 65  1  0  0  0  0
 25 44  1  0  0  0  0
 46 66  1  0  0  0  0
 20 66  1  0  0  0  0
 14 66  1  0  0  0  0
 10 66  1  0  0  0  0
  3 44  1  0  0  0  0
M  END
> <NMREDATA_VERSION>
1.1

> <NMREDATA_LEVEL>
0

> <NMREDATA_SOLVENT>
toluene-d8

> <NMREDATA_TEMPERATURE>
247

> <NMREDATA_FORMULA>
C60H52BN2P2Rh

> <NMREDATA_SMILES>
c1ccc(cc1)[B](c1ccccc1)(c1ccccc1)N#C[Rh](P(c1ccccc1)(c1ccccc1)c1ccccc1)(P(c1ccccc1)(c1ccccc1)c1ccccc1)c1ccncc1

> <NMREDATA_ASSIGNMENT>
Rh44, -233.00, 44

> <NMREDATA_1D_103Rh>
-233.00, L=Rh44

$$$$
