
  ACD/LABS02122413482D

 52 58  0  0  0  0  0  0  0  0  1 V2000
   17.5564  -12.8917    0.0000 C    0  0  0  0  0  0  0  0  0  0  0  0
   16.8914  -14.0442    0.0000 C    0  0  0  0  0  0  0  0  0  0  0  0
   16.8914  -11.7391    0.0000 C    0  0  0  0  0  0  0  0  0  0  0  0
   15.5709  -14.0442    0.0000 C    0  0  0  0  0  0  0  0  0  0  0  0
   15.5709  -11.7391    0.0000 C    0  0  0  0  0  0  0  0  0  0  0  0
   14.9059  -12.8917    0.0000 C    0  0  0  0  0  0  0  0  0  0  0  0
   11.8378  -13.1398    0.0000 C    0  0  0  0  0  0  0  0  0  0  0  0
   13.0880  -13.6011    0.0000 C    0  0  0  0  0  0  0  0  0  0  0  0
   11.6163  -11.8364    0.0000 C    0  0  0  0  0  0  0  0  0  0  0  0
   14.1079  -12.7499    0.0000 C    0  0  0  0  0  0  0  0  0  0  0  0
   12.6358  -10.9765    0.0000 C    0  0  0  0  0  0  0  0  0  0  0  0
   13.8860  -11.4374    0.0000 C    0  0  0  0  0  0  0  0  0  0  0  0
   14.9059  -10.5957    0.0000 P    0  0  0  0  0  0  0  0  0  0  0  0
   14.2409   -9.4432    0.0000 N    0  0  0  0  0  0  0  0  0  0  0  0
   12.9284   -9.2125    0.0000 C    0  0  0  0  0  0  0  0  0  0  0  0
   12.0772  -10.2321    0.0000 C    0  0  0  0  0  0  0  0  0  0  0  0
   12.4675   -7.9623    0.0000 C    0  0  0  0  0  0  0  0  0  0  0  0
   10.7651  -10.0018    0.0000 C    0  0  0  0  0  0  0  0  0  0  0  0
   11.1641   -7.7317    0.0000 C    0  0  0  0  0  0  0  0  0  0  0  0
   10.3041   -8.7603    0.0000 C    0  0  0  0  0  0  0  0  0  0  0  0
    9.0007   -8.5297    0.0000 C    0  0  0  0  0  0  0  0  0  0  0  0
   19.2234   -6.3576    0.0000 C    0  0  0  0  0  0  0  0  0  0  0  0
   20.5534   -6.3576    0.0000 C    0  0  0  0  0  0  0  0  0  0  0  0
   18.5584   -7.5014    0.0000 C    0  0  0  0  0  0  0  0  0  0  0  0
   21.2184   -7.5014    0.0000 C    0  0  0  0  0  0  0  0  0  0  0  0
   19.2234   -8.6539    0.0000 C    0  0  0  0  0  0  0  0  0  0  0  0
   20.5534   -8.6539    0.0000 C    0  0  0  0  0  0  0  0  0  0  0  0
   22.2999  -11.1714    0.0000 C    0  0  0  0  0  0  0  0  0  0  0  0
   22.0784   -9.8688    0.0000 C    0  0  0  0  0  0  0  0  0  0  0  0
   21.2804  -12.0226    0.0000 C    0  0  0  0  0  0  0  0  0  0  0  0
   20.8282   -9.4166    0.0000 C    0  0  0  0  0  0  0  0  0  0  0  0
   20.0302  -11.5704    0.0000 C    0  0  0  0  0  0  0  0  0  0  0  0
   19.8086  -10.2678    0.0000 C    0  0  0  0  0  0  0  0  0  0  0  0
   17.4055   -7.8115    0.0000 Rh   0  0  0  0  0  0  0  0  0  0  0  0
   17.4055   -9.1415    0.0000 C    0  0  0  0  0  0  0  0  0  0  0  0
   18.5584   -9.8065    0.0000 P    0  0  0  0  0  0  0  0  0  0  0  0
   17.8934  -10.9499    0.0000 N    0  0  0  0  0  0  0  0  0  0  0  0
   19.3386  -13.4590    0.0000 C    0  0  0  0  0  0  0  0  0  0  0  0
   20.6507  -13.6897    0.0000 C    0  0  0  0  0  0  0  0  0  0  0  0
   18.4874  -14.4789    0.0000 C    0  0  0  0  0  0  0  0  0  0  0  0
   21.1120  -14.9399    0.0000 C    0  0  0  0  0  0  0  0  0  0  0  0
   18.9483  -15.7291    0.0000 C    0  0  0  0  0  0  0  0  0  0  0  0
   20.2517  -15.9594    0.0000 C    0  0  0  0  0  0  0  0  0  0  0  0
   20.7130  -17.2096    0.0000 C    0  0  0  0  0  0  0  0  0  0  0  0
   16.2530   -7.1465    0.0000 C    0  0  0  0  0  0  0  0  0  0  0  0
   15.2073   -7.9623    0.0000 C    0  0  0  0  0  0  0  0  0  0  0  0
   16.4304   -5.8343    0.0000 C    0  0  0  0  0  0  0  0  0  0  0  0
   15.6241   -4.7791    0.0000 C    0  0  0  0  0  0  0  0  0  0  0  0
   13.8860   -7.7849    0.0000 C    0  0  0  0  0  0  0  0  0  0  0  0
   14.3116   -4.6020    0.0000 C    0  0  0  0  0  0  0  0  0  0  0  0
   13.0793   -6.7300    0.0000 C    0  0  0  0  0  0  0  0  0  0  0  0
   13.2567   -5.4087    0.0000 C    0  0  0  0  0  0  0  0  0  0  0  0
  1  2  1  0  0  0  0
  1  3  2  0  0  0  0
  2  4  2  0  0  0  0
  3  5  1  0  0  0  0
  4  6  1  0  0  0  0
  5  6  2  0  0  0  0
  7  8  1  0  0  0  0
  7  9  2  0  0  0  0
  8 10  2  0  0  0  0
  9 11  1  0  0  0  0
 10 12  1  0  0  0  0
 11 12  2  0  0  0  0
 13 14  2  0  0  0  0
 12 13  1  0  0  0  0
  5 13  1  0  0  0  0
 15 16  1  0  0  0  0
 15 17  2  0  0  0  0
 16 18  2  0  0  0  0
 17 19  1  0  0  0  0
 18 20  1  0  0  0  0
 19 20  2  0  0  0  0
 14 15  1  0  0  0  0
 20 21  1  0  0  0  0
 22 23  1  0  0  0  0
 22 24  2  0  0  0  0
 23 25  2  0  0  0  0
 24 26  1  0  0  0  0
 25 27  1  0  0  0  0
 26 27  2  0  0  0  0
 28 29  1  0  0  0  0
 28 30  2  0  0  0  0
 29 31  2  0  0  0  0
 30 32  1  0  0  0  0
 31 33  1  0  0  0  0
 32 33  2  0  0  0  0
 34 35  1  0  0  0  0
 35 36  1  0  0  0  0
 36 37  2  0  0  0  0
 33 36  1  0  0  0  0
 26 36  1  0  0  0  0
 38 39  1  0  0  0  0
 38 40  2  0  0  0  0
 39 41  2  0  0  0  0
 40 42  1  0  0  0  0
 41 43  1  0  0  0  0
 42 43  2  0  0  0  0
 37 38  1  0  0  0  0
 43 44  1  0  0  0  0
 45 46  1  0  0  0  0
 45 47  1  0  0  0  0
 46 49  1  0  0  0  0
 47 48  2  0  0  0  0
 48 50  1  0  0  0  0
 49 51  2  0  0  0  0
 50 52  1  0  0  0  0
 51 52  1  0  0  0  0
 34 45  1  0  0  0  0
 13 35  1  0  0  0  0
M  END
> <NMREDATA_VERSION>
1.1

> <NMREDATA_LEVEL>
0

> <NMREDATA_SOLVENT>
C6D6

> <NMREDATA_TEMPERATURE>
298

> <NMREDATA_FORMULA>
C47H46N2P2Rh

> <NMREDATA_SMILES>
Cc1ccc(cc1)N=P(C(P(=Nc1ccc(cc1)C)(c1ccccc1)c1ccccc1)[Rh]C1C=CCCC=CC1)(c1ccccc1)c1ccccc1

> <NMREDATA_ASSIGNMENT>
Rh34, 917.00, 34

> <NMREDATA_1D_103Rh>
917.00, L=Rh34

$$$$
