LaurenceCarlton-2008_00104.mol
  ChemDraw09172413122D

 29 36  0  0  1  0  0  0  0  0999 V2000
    0.6543   -1.1834    0.0000 Rh   0  0  0  0  0  0  0  0  0  0  0  0
   -1.9195   -1.8755    0.0000 C    0  0  0  0  0  0  0  0  0  0  0  0
   -2.7071   -1.6299    0.0000 C    0  0  0  0  0  0  0  0  0  0  0  0
   -1.1889   -1.4923    0.0000 C    0  0  0  0  0  0  0  0  0  0  0  0
   -0.9433   -0.7047    0.0000 C    0  0  0  0  0  0  0  0  0  0  0  0
   -3.0903   -0.8993    0.0000 C    0  0  0  0  0  0  0  0  0  0  0  0
   -1.3265    0.0259    0.0000 C    0  0  0  0  0  0  0  0  0  0  0  0
   -2.8447   -0.1117    0.0000 C    0  0  0  0  0  0  0  0  0  0  0  0
   -2.1141    0.2716    0.0000 C    0  0  0  0  0  0  0  0  0  0  0  0
    1.4143    0.1103    0.0000 P    0  0  0  0  0  0  0  0  0  0  0  0
    1.9413    1.3206    0.0000 C    0  0  0  0  0  0  0  0  0  0  0  0
    1.4508    1.9840    0.0000 C    0  0  0  0  0  0  0  0  0  0  0  0
    2.7610    1.4136    0.0000 C    0  0  0  0  0  0  0  0  0  0  0  0
    1.7802    2.7404    0.0000 C    0  0  0  0  0  0  0  0  0  0  0  0
    3.0903    2.1700    0.0000 C    0  0  0  0  0  0  0  0  0  0  0  0
    2.5999    2.8334    0.0000 C    0  0  0  0  0  0  0  0  0  0  0  0
    0.6297    1.1718    0.0000 C    0  0  0  0  0  0  0  0  0  0  0  0
   -0.1901    1.0788    0.0000 C    0  0  0  0  0  0  0  0  0  0  0  0
    0.9590    1.9282    0.0000 C    0  0  0  0  0  0  0  0  0  0  0  0
   -0.6805    1.7422    0.0000 C    0  0  0  0  0  0  0  0  0  0  0  0
    0.4686    2.5916    0.0000 C    0  0  0  0  0  0  0  0  0  0  0  0
   -0.3512    2.4986    0.0000 C    0  0  0  0  0  0  0  0  0  0  0  0
    2.0295   -0.5407    0.0000 C    0  0  0  0  0  0  0  0  0  0  0  0
    2.0832   -1.1835    0.0000 C    0  0  0  0  0  0  0  0  0  0  0  0
    2.7977   -1.5960    0.0000 C    0  0  0  0  0  0  0  0  0  0  0  0
    1.3688   -1.5959    0.0000 C    0  0  0  0  0  0  0  0  0  0  0  0
    2.7976   -2.4209    0.0000 C    0  0  0  0  0  0  0  0  0  0  0  0
    1.3687   -2.4209    0.0000 C    0  0  0  0  0  0  0  0  0  0  0  0
    2.0831   -2.8334    0.0000 C    0  0  0  0  0  0  0  0  0  0  0  0
  2  3  1  0  0
  2  4  1  0  0
  3  6  1  0  0
  4  5  1  0  0
  5  7  1  0  0
  6  8  1  0  0
  7  9  1  0  0
  8  9  1  0  0
 11 12  1  0  0
 11 13  1  0  0
 12 14  1  0  0
 13 15  1  0  0
 14 16  1  0  0
 15 16  1  0  0
 10 11  1  0  0
 17 18  1  0  0
 17 19  1  0  0
 18 20  1  0  0
 19 21  1  0  0
 20 22  1  0  0
 21 22  1  0  0
 10 17  1  0  0
 24 25  1  0  0
 24 26  2  0  0
 25 27  2  0  0
 26 28  1  0  0
 27 29  1  0  0
 28 29  2  0  0
 23 24  1  0  0
  1 26  1  0  0
  5  1  1  0  0
  1  3  1  0  0
  6  1  1  0  0
  7  1  1  0  0
 23 10  1  0  0
 10  1  1  0  0
M  END
> <NMREDATA_VERSION>
1.1

> <NMREDATA_LEVEL>
0

> <NMREDATA_SOLVENT>
THF

> <NMREDATA_TEMPERATURE>
310

> <NMREDATA_FORMULA>
C27H41PRh

> <NMREDATA_SMILES>
C1CCC(CC1)P1(Cc2c([Rh]3451C1C5CCC3C4CC1)cccc2)C1CCCCC1

> <NMREDATA_ASSIGNMENT>
Rh1, 22.00, 1

> <NMREDATA_1D_103Rh>
22.00, L=Rh1

$$$$
