
  ACD/LABS03082410052D

 29 34  0  0  0  0  0  0  0  0  1 V2000
    6.4295   -9.3485    0.0000 C    0  0  0  0  0  0  0  0  0  0  0  0
    5.2990   -8.5346    0.0000 C    0  0  0  0  0  0  0  0  0  0  0  0
    5.9956  -10.6765    0.0000 N    0  0  0  0  0  0  0  0  0  0  0  0
    4.1707   -9.3544    0.0000 C    0  0  0  0  0  0  0  0  0  0  0  0
    4.5996  -10.6761    0.0000 N    0  0  0  0  0  0  0  0  0  0  0  0
    2.7570  -16.4531    0.0000 C    0  0  0  0  0  0  0  0  0  0  0  0
    2.6322  -17.8416    0.0000 C    0  0  0  0  0  0  0  0  0  0  0  0
    5.3896  -17.7152    0.0000 C    0  0  0  0  0  0  0  0  0  0  0  0
    7.1821  -19.8564    0.0000 C    0  0  0  0  0  0  0  0  0  0  0  0
    5.5147  -16.3269    0.0000 C    0  0  0  0  0  0  0  0  0  0  0  0
    8.2486  -18.9580    0.0000 C    0  0  0  0  0  0  0  0  0  0  0  0
    6.9539  -15.3966    0.0000 C    0  0  0  0  0  0  0  0  0  0  0  0
    9.2010  -15.1694    0.0000 C    0  0  0  0  0  0  0  0  0  0  0  0
   10.5784  -15.4062    0.0000 C    0  0  0  0  0  0  0  0  0  0  0  0
    9.0086  -13.7909    0.0000 N    0  0  0  0  0  0  0  0  0  0  0  0
   11.2358  -14.1747    0.0000 C    0  0  0  0  0  0  0  0  0  0  0  0
   10.2585  -13.1699    0.0000 N    0  0  0  0  0  0  0  0  0  0  0  0
    5.3253  -12.7491    0.0000 C    0  0  0  0  0  0  0  0  0  0  0  0
    4.2018  -13.5606    0.0000 C    0  0  0  0  0  0  0  0  0  0  0  0
    6.4640  -13.5674    0.0000 N    0  0  0  0  0  0  0  0  0  0  0  0
    4.6388  -14.8870    0.0000 C    0  0  0  0  0  0  0  0  0  0  0  0
    6.0264  -14.8826    0.0000 N    0  0  0  0  0  0  0  0  0  0  0  0
    8.0155  -14.5064    0.0000 Rh   0  0  0  0  0  0  0  0  0  0  0  0
    7.7771  -13.1335    0.0000 B    0  0  0  0  0  0  0  0  0  0  0  0
    9.9868  -12.0037    0.0000 C    0  0  0  0  0  0  0  0  0  0  0  0
   10.4208  -10.6754    0.0000 C    0  0  0  0  0  0  0  0  0  0  0  0
    8.5989  -12.0079    0.0000 N    0  0  0  0  0  0  0  0  0  0  0  0
    9.2949   -9.8537    0.0000 C    0  0  0  0  0  0  0  0  0  0  0  0
    8.1749  -10.6783    0.0000 N    0  0  0  0  0  0  0  0  0  0  0  0
  1  2  2  0  0  0  0
  1  3  1  0  0  0  0
  2  4  1  0  0  0  0
  3  5  1  0  0  0  0
  4  5  2  0  0  0  0
  6  7  2  0  0  0  0
  7  8  1  0  0  0  0
  8  9  1  0  0  0  0
  6 10  1  0  0  0  0
 10 11  1  0  0  0  0
 11  9  2  0  0  0  0
 10 12  1  0  0  0  0
  8 12  1  0  0  0  0
 13 14  2  0  0  0  0
 13 15  1  0  0  0  0
 14 16  1  0  0  0  0
 15 17  1  0  0  0  0
 16 17  2  0  0  0  0
 18 19  2  0  0  0  0
 18 20  1  0  0  0  0
 19 21  1  0  0  0  0
 20 22  1  0  0  0  0
 21 22  2  0  0  0  0
 23 24  1  0  0  0  0
 20 24  1  0  0  0  0
 15 24  1  0  0  0  0
 12 23  1  0  0  0  0
  3 24  1  0  0  0  0
 25 26  2  0  0  0  0
 25 27  1  0  0  0  0
 26 28  1  0  0  0  0
 27 29  1  0  0  0  0
 28 29  2  0  0  0  0
 24 27  1  0  0  0  0
M  END
> <NMREDATA_VERSION>
1.1

> <NMREDATA_LEVEL>
0

> <NMREDATA_SOLVENT>
DCCl3

> <NMREDATA_TEMPERATURE>
298

> <NMREDATA_FORMULA>
C19H19BN8Rh

> <NMREDATA_SMILES>
c1cnn(c1)[B](n1cccn1)(n1cccn1)(n1cccn1)[Rh]C1C2C=CC1C=C2

> <NMREDATA_ASSIGNMENT>
Rh23, 979.00, 23

> <NMREDATA_1D_103Rh>
979.00, L=Rh23

$$$$
