LaurenceCarlton-2008_00250.mol
  ChemDraw08142417172D

 46 53  0  0  1  0  0  0  0  0999 V2000
   -2.1869   -3.3549    0.0000 B    0  5  0  0  0  0  0  0  0  0  0  0
   -2.6789   -2.5028    0.0000 F    0  0  0  0  0  0  0  0  0  0  0  0
   -1.3347   -2.8629    0.0000 F    0  0  0  0  0  0  0  0  0  0  0  0
   -3.0391   -3.8470    0.0000 F    0  0  0  0  0  0  0  0  0  0  0  0
   -1.6949   -4.2072    0.0000 F    0  0  0  0  0  0  0  0  0  0  0  0
   -2.4521    1.6686    0.0000 Rh   0  3  0  0  0  0  0  0  0  0  0  0
    3.0324    2.8108    0.0000 C    0  0  0  0  0  0  0  0  0  0  0  0
    2.2261    2.6362    0.0000 C    0  0  0  0  0  0  0  0  0  0  0  0
    3.2850    3.5962    0.0000 C    0  0  0  0  0  0  0  0  0  0  0  0
    1.6722    3.2472    0.0000 C    0  0  0  0  0  0  0  0  0  0  0  0
    2.7310    4.2072    0.0000 C    0  0  0  0  0  0  0  0  0  0  0  0
    1.9246    4.0328    0.0000 C    0  0  0  0  0  0  0  0  0  0  0  0
    4.9466    1.7634    0.0000 C    0  0  0  0  0  0  0  0  0  0  0  0
    4.3926    2.3743    0.0000 C    0  0  0  0  0  0  0  0  0  0  0  0
    5.7493    1.9422    0.0000 C    0  0  0  0  0  0  0  0  0  0  0  0
    4.6454    3.1599    0.0000 C    0  0  0  0  0  0  0  0  0  0  0  0
    6.0056    2.7234    0.0000 C    0  0  0  0  0  0  0  0  0  0  0  0
    5.4517    3.3344    0.0000 C    0  0  0  0  0  0  0  0  0  0  0  0
    3.5863    2.1998    0.0000 P    0  0  0  0  0  0  0  0  0  0  0  0
    3.3338    1.4144    0.0000 C    0  0  0  0  0  0  0  0  0  0  0  0
    3.8877    0.8034    0.0000 C    0  0  0  0  0  0  0  0  0  0  0  0
    3.6395    0.0296    0.0000 C    0  0  0  0  0  0  0  0  0  0  0  0
    4.6902    0.9821    0.0000 O    0  0  0  0  0  0  0  0  0  0  0  0
    2.8369   -0.1492    0.0000 O    0  0  0  0  0  0  0  0  0  0  0  0
    4.1934   -0.5815    0.0000 C    0  0  0  0  0  0  0  0  0  0  0  0
    3.9408   -1.3668    0.0000 P    0  0  0  0  0  0  0  0  0  0  0  0
    3.1345   -1.5414    0.0000 C    0  0  0  0  0  0  0  0  0  0  0  0
    2.5806   -0.9304    0.0000 C    0  0  0  0  0  0  0  0  0  0  0  0
    2.8818   -2.3270    0.0000 C    0  0  0  0  0  0  0  0  0  0  0  0
    1.7779   -1.1093    0.0000 C    0  0  0  0  0  0  0  0  0  0  0  0
    2.0755   -2.5015    0.0000 C    0  0  0  0  0  0  0  0  0  0  0  0
    1.5215   -1.8905    0.0000 C    0  0  0  0  0  0  0  0  0  0  0  0
    4.4948   -1.9778    0.0000 C    0  0  0  0  0  0  0  0  0  0  0  0
    5.3011   -1.8033    0.0000 C    0  0  0  0  0  0  0  0  0  0  0  0
    4.2422   -2.7632    0.0000 C    0  0  0  0  0  0  0  0  0  0  0  0
    5.8550   -2.4143    0.0000 C    0  0  0  0  0  0  0  0  0  0  0  0
    4.7961   -3.3742    0.0000 C    0  0  0  0  0  0  0  0  0  0  0  0
    5.6026   -3.1999    0.0000 C    0  0  0  0  0  0  0  0  0  0  0  0
   -6.0056    0.1715    0.0000 C    0  0  0  0  0  0  0  0  0  0  0  0
   -5.4223    0.7549    0.0000 C    0  0  0  0  0  0  0  0  0  0  0  0
   -6.0056   -0.6535    0.0000 C    0  0  0  0  0  0  0  0  0  0  0  0
   -5.4223   -1.2368    0.0000 C    0  0  0  0  0  0  0  0  0  0  0  0
   -4.5973    0.7549    0.0000 C    0  0  0  0  0  0  0  0  0  0  0  0
   -4.5973   -1.2368    0.0000 C    0  0  0  0  0  0  0  0  0  0  0  0
   -4.0139    0.1715    0.0000 C    0  0  0  0  0  0  0  0  0  0  0  0
   -4.0139   -0.6535    0.0000 C    0  0  0  0  0  0  0  0  0  0  0  0
  1  2  1  0  0
  1  3  1  0  0
  1  4  1  0  0
  1  5  1  0  0
  7  8  1  0  0
  7  9  2  0  0
  8 10  2  0  0
  9 11  1  0  0
 10 12  1  0  0
 11 12  2  0  0
 13 14  1  0  0
 13 15  2  0  0
 14 16  2  0  0
 15 17  1  0  0
 16 18  1  0  0
 17 18  2  0  0
 14 19  1  0  0
  7 19  1  0  0
 19 20  1  0  0
 20 21  1  0  0
 21 22  1  0  0
 21 23  1  6  0
 22 24  1  1  0
 22 25  1  0  0
 25 26  1  0  0
 27 28  1  0  0
 27 29  2  0  0
 28 30  2  0  0
 29 31  1  0  0
 30 32  1  0  0
 31 32  2  0  0
 26 27  1  0  0
 33 34  1  0  0
 33 35  2  0  0
 34 36  2  0  0
 35 37  1  0  0
 36 38  1  0  0
 37 38  2  0  0
 26 33  1  0  0
 39 40  1  0  0
 39 41  1  0  0
 40 43  1  0  0
 41 42  1  0  0
 42 44  1  0  0
 43 45  1  0  0
 44 46  1  0  0
 45 46  1  0  0
 19  6  1  0  0
 26  6  1  0  0
 45  6  1  0  0
 46  6  1  0  0
 39  6  1  0  0
 41  6  1  0  0
M  END
> <NMREDATA_VERSION>
1.1

> <NMREDATA_LEVEL>
0

> <NMREDATA_SOLVENT>
CD3OD/CD2Cl2

> <NMREDATA_TEMPERATURE>
185

> <NMREDATA_FORMULA>
C36H42BF4O2P2Rh

> <NMREDATA_SMILES>
F[B](F)(F)F.O[C@@H]1CP(c2ccccc2)(c2ccccc2)[Rh]234(P(C[C@@H]1O)(c1ccccc1)c1ccccc1)C1C4CCC2C3CC1

> <NMREDATA_ASSIGNMENT>
Rh6, 25.00, 6

> <NMREDATA_1D_103Rh>
25.00, L=Rh6

$$$$
