
  ACD/LABS02062414182D

 58 66  0  0  0  0  0  0  0  0  2 V2000
   22.2235  -16.9775    0.0000 C    0  0  0  0  0  0  0  0  0  0  0  0
   22.2235  -18.3075    0.0000 C    0  0  0  0  0  0  0  0  0  0  0  0
   21.0716  -16.3125    0.0000 C    0  0  0  0  0  0  0  0  0  0  0  0
   21.0716  -18.9725    0.0000 C    0  0  0  0  0  0  0  0  0  0  0  0
   19.9198  -16.9775    0.0000 C    0  0  0  0  0  0  0  0  0  0  0  0
   19.9198  -18.3075    0.0000 C    0  0  0  0  0  0  0  0  0  0  0  0
   25.1559  -10.2154    0.0000 C    0  0  0  0  0  0  0  0  0  0  0  0
   25.1559  -11.5454    0.0000 C    0  0  0  0  0  0  0  0  0  0  0  0
   24.0040   -9.5504    0.0000 C    0  0  0  0  0  0  0  0  0  0  0  0
   24.0040  -12.2104    0.0000 C    0  0  0  0  0  0  0  0  0  0  0  0
   22.8523  -10.2154    0.0000 C    0  0  0  0  0  0  0  0  0  0  0  0
   22.8523  -11.5454    0.0000 C    0  0  0  0  0  0  0  0  0  0  0  0
   20.3808   -6.5619    0.0000 C    0  0  0  0  0  0  0  0  0  0  0  0
   20.3808   -7.8919    0.0000 C    0  0  0  0  0  0  0  0  0  0  0  0
   19.2289   -5.8969    0.0000 C    0  0  0  0  0  0  0  0  0  0  0  0
   19.2289   -8.5569    0.0000 C    0  0  0  0  0  0  0  0  0  0  0  0
   18.0771   -6.5619    0.0000 C    0  0  0  0  0  0  0  0  0  0  0  0
   18.0771   -7.8919    0.0000 C    0  0  0  0  0  0  0  0  0  0  0  0
   12.4168  -11.8178    0.0000 C    0  0  0  0  0  0  0  0  0  0  0  0
   12.4168  -13.1478    0.0000 C    0  0  0  0  0  0  0  0  0  0  0  0
   11.2649  -11.1528    0.0000 C    0  0  0  0  0  0  0  0  0  0  0  0
   11.2649  -13.8128    0.0000 C    0  0  0  0  0  0  0  0  0  0  0  0
   10.1131  -11.8178    0.0000 C    0  0  0  0  0  0  0  0  0  0  0  0
   10.1131  -13.1478    0.0000 C    0  0  0  0  0  0  0  0  0  0  0  0
   13.5909   -6.7002    0.0000 C    0  0  0  0  0  0  0  0  0  0  0  0
   13.1701   -7.9575    0.0000 C    0  0  0  0  0  0  0  0  0  0  0  0
   14.8359   -6.2480    0.0000 C    0  0  0  0  0  0  0  0  0  0  0  0
   13.8968   -9.0745    0.0000 C    0  0  0  0  0  0  0  0  0  0  0  0
   15.9701   -6.9348    0.0000 C    0  0  0  0  0  0  0  0  0  0  0  0
   16.1410   -8.2604    0.0000 C    0  0  0  0  0  0  0  0  0  0  0  0
   15.2167   -9.2141    0.0000 C    0  0  0  0  0  0  0  0  0  0  0  0
   17.4321   -8.5800    0.0000 C    0  0  0  0  0  0  0  0  0  0  0  0
   17.7958   -9.8660    0.0000 C    0  0  0  0  0  0  0  0  0  0  0  0
   15.5754  -10.4925    0.0000 C    0  0  0  0  0  0  0  0  0  0  0  0
   16.8710  -10.8199    0.0000 C    0  0  0  0  0  0  0  0  0  0  0  0
   12.7084   -5.7037    0.0000 C    0  0  0  0  0  0  0  0  0  0  0  0
   11.4090   -5.9722    0.0000 C    0  0  0  0  0  0  0  0  0  0  0  0
   11.8704   -8.2262    0.0000 C    0  0  0  0  0  0  0  0  0  0  0  0
   10.9879   -7.2297    0.0000 C    0  0  0  0  0  0  0  0  0  0  0  0
   18.6841  -12.8994    0.0000 Rh   0  3  0  0  0  0  0  0  0  0  0  0
   16.6170  -11.9380    0.0000 P    0  0  0  0  0  0  0  0  0  0  0  0
   20.9115  -14.0692    0.0000 P    0  0  0  0  0  0  0  0  0  0  0  0
   27.8038  -17.7049    0.0000 C    0  0  0  0  0  0  0  0  0  0  0  0
   28.4366  -16.5301    0.0000 C    0  0  0  0  0  0  0  0  0  0  0  0
   26.4941  -17.9382    0.0000 C    0  0  0  0  0  0  0  0  0  0  0  0
   27.9139  -15.3053    0.0000 C    0  0  0  0  0  0  0  0  0  0  0  0
   25.4956  -17.0604    0.0000 C    0  0  0  0  0  0  0  0  0  0  0  0
   25.5512  -15.7373    0.0000 C    0  0  0  0  0  0  0  0  0  0  0  0
   26.6326  -14.9490    0.0000 C    0  0  0  0  0  0  0  0  0  0  0  0
   24.3337  -15.1902    0.0000 C    0  0  0  0  0  0  0  0  0  0  0  0
   24.2023  -13.8628    0.0000 C    0  0  0  0  0  0  0  0  0  0  0  0
   26.4937  -13.6259    0.0000 C    0  0  0  0  0  0  0  0  0  0  0  0
   28.4954  -18.8316    0.0000 C    0  0  0  0  0  0  0  0  0  0  0  0
   29.8244  -18.7915    0.0000 C    0  0  0  0  0  0  0  0  0  0  0  0
   29.7660  -16.4898    0.0000 C    0  0  0  0  0  0  0  0  0  0  0  0
   25.0457  -12.9795    0.0000 C    0  0  0  0  0  0  0  0  0  0  0  0
   31.0066  -17.5784    0.0000 C    0  0  0  0  0  0  0  0  0  0  0  0
   16.7131  -14.5018    0.0000 Cl   0  5  0  0  0  0  0  0  0  0  0  0
  1  2  1  0  0  0  0
  1  3  2  0  0  0  0
  2  4  2  0  0  0  0
  3  5  1  0  0  0  0
  4  6  1  0  0  0  0
  5  6  2  0  0  0  0
  7  8  1  0  0  0  0
  7  9  2  0  0  0  0
  8 10  2  0  0  0  0
  9 11  1  0  0  0  0
 10 12  1  0  0  0  0
 11 12  2  0  0  0  0
 13 14  1  0  0  0  0
 13 15  2  0  0  0  0
 14 16  2  0  0  0  0
 15 17  1  0  0  0  0
 16 18  1  0  0  0  0
 17 18  2  0  0  0  0
 19 20  1  0  0  0  0
 19 21  2  0  0  0  0
 20 22  2  0  0  0  0
 21 23  1  0  0  0  0
 22 24  1  0  0  0  0
 23 24  2  0  0  0  0
 25 27  1  0  0  0  0
 26 28  1  0  0  0  0
 27 29  2  0  0  0  0
 28 31  1  0  0  0  0
 29 30  1  0  0  0  0
 30 32  1  0  0  0  0
 30 31  2  0  0  0  0
 32 33  2  0  0  0  0
 31 34  1  0  0  0  0
 33 35  1  0  0  0  0
 34 35  2  0  0  0  0
 25 36  1  0  0  0  0
 25 26  2  0  0  0  0
 36 37  2  0  0  0  0
 26 38  1  0  0  0  0
 37 39  1  0  0  0  0
 38 39  2  0  0  0  0
 40 41  1  0  0  0  0
 28 41  1  0  0  0  0
 40 42  1  0  0  0  0
 43 45  1  0  0  0  0
 44 46  1  0  0  0  0
 45 47  2  0  0  0  0
 46 49  1  0  0  0  0
 47 48  1  0  0  0  0
 48 50  1  0  0  0  0
 48 49  2  0  0  0  0
 50 51  2  0  0  0  0
 49 52  1  0  0  0  0
 43 53  1  0  0  0  0
 43 44  2  0  0  0  0
 53 54  2  0  0  0  0
 44 55  1  0  0  0  0
 51 56  1  0  0  0  0
 56 52  2  0  0  0  0
 55 57  2  0  0  0  0
 57 54  1  0  0  0  0
 42 46  1  0  0  0  0
 19 41  1  0  0  0  0
 16 41  1  0  0  0  0
 12 42  1  0  0  0  0
  3 42  1  0  0  0  0
M  END
> <NMREDATA_VERSION>
1.1

> <NMREDATA_LEVEL>
0

> <NMREDATA_SOLVENT>
CD2Cl2

> <NMREDATA_TEMPERATURE>
248

> <NMREDATA_FORMULA>
C54H45ClP2Rh

> <NMREDATA_SMILES>
c1ccc(cc1)P(C1c2ccccc2C=Cc2c1cccc2)(c1ccccc1)[Rh]P(C1c2ccccc2C=Cc2c1cccc2)(c1ccccc1)c1ccccc1.Cl

> <NMREDATA_ASSIGNMENT>
Rh40, 210.00, 40

> <NMREDATA_1D_103Rh>
210.00, L=Rh40

$$$$
