
  ACD/LABS04032413432D

 42 44  0  0  0  0  0  0  0  0  2 V2000
   12.7392  -10.2714    0.0000 Br   0  5  0  0  0  0  0  0  0  0  0  0
   14.2564  -12.6898    0.0000 C    0  0  0  0  0  0  0  0  0  0  0  0
   15.1140  -11.6822    0.0000 C    0  0  0  0  0  0  0  0  0  0  0  0
   14.7088  -13.9423    0.0000 C    0  0  0  0  0  0  0  0  0  0  0  0
   16.4207  -11.9153    0.0000 C    0  0  0  0  0  0  0  0  0  0  0  0
   16.0153  -14.1753    0.0000 C    0  0  0  0  0  0  0  0  0  0  0  0
   16.8651  -13.1636    0.0000 C    0  0  0  0  0  0  0  0  0  0  0  0
   13.6858  -14.7930    0.0000 As   0  0  0  0  0  0  0  0  0  0  0  0
   12.4363  -14.3374    0.0000 C    0  0  0  0  0  0  0  0  0  0  0  0
   13.9176  -16.0916    0.0000 C    0  0  0  0  0  0  0  0  0  0  0  0
   19.9620  -15.4830    0.0000 C    0  0  0  0  0  0  0  0  0  0  0  0
   20.1964  -16.7940    0.0000 C    0  0  0  0  0  0  0  0  0  0  0  0
   18.7243  -15.0239    0.0000 C    0  0  0  0  0  0  0  0  0  0  0  0
   19.1783  -17.6369    0.0000 C    0  0  0  0  0  0  0  0  0  0  0  0
   17.7015  -15.8748    0.0000 C    0  0  0  0  0  0  0  0  0  0  0  0
   17.9288  -17.1813    0.0000 C    0  0  0  0  0  0  0  0  0  0  0  0
   18.9498  -13.7128    0.0000 As   0  0  0  0  0  0  0  0  0  0  0  0
   17.9260  -12.8662    0.0000 C    0  0  0  0  0  0  0  0  0  0  0  0
   20.1948  -13.2564    0.0000 C    0  0  0  0  0  0  0  0  0  0  0  0
   16.4520  -15.4192    0.0000 As   0  0  0  0  0  0  0  0  0  0  0  0
   11.0203  -17.4447    0.0000 C    0  0  0  0  0  0  0  0  0  0  0  0
   10.7859  -16.1338    0.0000 C    0  0  0  0  0  0  0  0  0  0  0  0
   12.2625  -17.8962    0.0000 C    0  0  0  0  0  0  0  0  0  0  0  0
   11.8086  -15.2829    0.0000 C    0  0  0  0  0  0  0  0  0  0  0  0
   13.2852  -17.0453    0.0000 C    0  0  0  0  0  0  0  0  0  0  0  0
   13.0581  -15.7386    0.0000 C    0  0  0  0  0  0  0  0  0  0  0  0
   12.2622  -19.2246    0.0000 As   0  0  0  0  0  0  0  0  0  0  0  0
   13.5761  -19.0021    0.0000 C    0  0  0  0  0  0  0  0  0  0  0  0
   11.1118  -19.8891    0.0000 C    0  0  0  0  0  0  0  0  0  0  0  0
   15.2250  -20.7309    0.0000 C    0  0  0  0  0  0  0  0  0  0  0  0
   16.5614  -20.7358    0.0000 C    0  0  0  0  0  0  0  0  0  0  0  0
   14.5725  -19.5774    0.0000 C    0  0  0  0  0  0  0  0  0  0  0  0
   17.2253  -19.5859    0.0000 C    0  0  0  0  0  0  0  0  0  0  0  0
   15.2441  -18.4318    0.0000 C    0  0  0  0  0  0  0  0  0  0  0  0
   16.5682  -18.4398    0.0000 C    0  0  0  0  0  0  0  0  0  0  0  0
   13.2663  -19.8044    0.0000 As   0  0  0  0  0  0  0  0  0  0  0  0
   12.8219  -18.5561    0.0000 C    0  0  0  0  0  0  0  0  0  0  0  0
   12.8030  -21.0495    0.0000 C    0  0  0  0  0  0  0  0  0  0  0  0
   14.5919  -17.2784    0.0000 As   0  0  0  0  0  0  0  0  0  0  0  0
   15.4450  -16.2787    0.0000 Rh   0  3  0  0  0  0  0  0  0  0  0  0
   16.2967  -17.2812    0.0000 Br   0  0  0  0  0  0  0  0  0  0  0  0
   14.5941  -15.2560    0.0000 Br   0  0  0  0  0  0  0  0  0  0  0  0
  2  3  1  0  0  0  0
  2  4  2  0  0  0  0
  3  5  2  0  0  0  0
  4  6  1  0  0  0  0
  5  7  1  0  0  0  0
  6  7  2  0  0  0  0
  4  8  1  0  0  0  0
  8  9  1  0  0  0  0
  8 10  1  0  0  0  0
 11 12  1  0  0  0  0
 11 13  2  0  0  0  0
 12 14  2  0  0  0  0
 13 15  1  0  0  0  0
 14 16  1  0  0  0  0
 15 16  2  0  0  0  0
 13 17  1  0  0  0  0
 17 18  1  0  0  0  0
 17 19  1  0  0  0  0
 15 20  1  0  0  0  0
  6 20  1  0  0  0  0
 21 22  1  0  0  0  0
 21 23  2  0  0  0  0
 22 24  2  0  0  0  0
 23 25  1  0  0  0  0
 24 26  1  0  0  0  0
 25 26  2  0  0  0  0
 23 27  1  0  0  0  0
 27 28  1  0  0  0  0
 27 29  1  0  0  0  0
 30 31  1  0  0  0  0
 30 32  2  0  0  0  0
 31 33  2  0  0  0  0
 32 34  1  0  0  0  0
 33 35  1  0  0  0  0
 34 35  2  0  0  0  0
 32 36  1  0  0  0  0
 36 37  1  0  0  0  0
 36 38  1  0  0  0  0
 34 39  1  0  0  0  0
 40 41  1  0  0  0  0
 40 42  1  0  0  0  0
 39 40  1  0  0  0  0
 25 39  1  0  0  0  0
 20 40  1  0  0  0  0
M  END
> <NMREDATA_VERSION>
1.1

> <NMREDATA_LEVEL>
0

> <NMREDATA_SOLVENT>
DMF-d7

> <NMREDATA_TEMPERATURE>
300

> <NMREDATA_FORMULA>
C32H41As6Br3Rh

> <NMREDATA_SMILES>
C[As](c1ccccc1[As]([Rh]([As](c1ccccc1[As](C)C)c1ccccc1[As](C)C)(Br)Br)c1ccccc1[As](C)C)C.Br

> <NMREDATA_ASSIGNMENT>
Rh40, 750.00, 40

> <NMREDATA_1D_103Rh>
750.00, L=Rh40

$$$$
