
  ACD/LABS03242411462D

 25 25  0  0  0  0  0  0  0  0  1 V2000
   11.7771  -12.4390    0.0000 O    0  0  0  0  0  0  0  0  0  0  0  0
   12.2287  -11.1911    0.0000 N    0  0  0  0  0  0  0  0  0  0  0  0
   13.5384  -10.9607    0.0000 C    0  0  0  0  0  0  0  0  0  0  0  0
   14.3882  -11.9787    0.0000 C    0  0  0  0  0  0  0  0  0  0  0  0
   13.9988   -9.7219    0.0000 C    0  0  0  0  0  0  0  0  0  0  0  0
   13.1403   -8.6952    0.0000 C    0  0  0  0  0  0  0  0  0  0  0  0
   15.2997   -9.4916    0.0000 N    0  0  0  0  0  0  0  0  0  0  0  0
   15.7601   -8.2528    0.0000 O    0  0  0  0  0  0  0  0  0  0  0  0
   19.4325  -14.4921    0.0000 O    0  0  0  0  0  0  0  0  0  0  0  0
   18.4062  -13.6427    0.0000 N    0  0  0  0  0  0  0  0  0  0  0  0
   18.6362  -12.3326    0.0000 C    0  0  0  0  0  0  0  0  0  0  0  0
   19.8841  -11.8726    0.0000 C    0  0  0  0  0  0  0  0  0  0  0  0
   17.6182  -11.4832    0.0000 C    0  0  0  0  0  0  0  0  0  0  0  0
   16.3795  -11.9344    0.0000 C    0  0  0  0  0  0  0  0  0  0  0  0
   17.8486  -10.1731    0.0000 N    0  0  0  0  0  0  0  0  0  0  0  0
   16.8307   -9.3234    0.0000 O    0  0  0  0  0  0  0  0  0  0  0  0
   17.0606   -8.0228    0.0000 Rh   0  0  0  0  0  0  0  0  0  0  0  0
   18.3619   -8.2528    0.0000 C    0  0  0  0  0  0  0  0  0  0  0  0
   19.4533   -9.6786    0.0000 Cl   0  0  0  0  0  0  0  0  0  0  0  0
   17.0606   -6.6968    0.0000 N    0  0  0  0  0  0  0  0  0  0  0  0
   15.9122   -6.0338    0.0000 C    0  0  0  0  0  0  0  0  0  0  0  0
   18.2090   -6.0337    0.0000 C    0  0  0  0  0  0  0  0  0  0  0  0
   15.9122   -4.7078    0.0000 C    0  0  0  0  0  0  0  0  0  0  0  0
   18.2089   -4.7077    0.0000 C    0  0  0  0  0  0  0  0  0  0  0  0
   17.0605   -4.0448    0.0000 C    0  0  0  0  0  0  0  0  0  0  0  0
  1  2  1  0  0  0  0
  2  3  2  0  0  0  0
  3  4  1  0  0  0  0
  3  5  1  0  0  0  0
  5  6  1  0  0  0  0
  5  7  2  0  0  0  0
  7  8  1  0  0  0  0
  9 10  1  0  0  0  0
 10 11  2  0  0  0  0
 11 12  1  0  0  0  0
 11 13  1  0  0  0  0
 13 14  1  0  0  0  0
 13 15  2  0  0  0  0
 15 16  1  0  0  0  0
 16 17  1  0  0  0  0
 17 18  1  0  0  0  0
  8 17  1  0  0  0  0
 18 19  1  0  0  0  0
 20 21  1  0  0  0  0
 20 22  2  0  0  0  0
 21 23  2  0  0  0  0
 22 24  1  0  0  0  0
 23 25  1  0  0  0  0
 24 25  2  0  0  0  0
 17 20  1  0  0  0  0
M  END
> <NMREDATA_VERSION>
1.1

> <NMREDATA_LEVEL>
0

> <NMREDATA_SOLVENT>
DCCl3

> <NMREDATA_TEMPERATURE>
298

> <NMREDATA_FORMULA>
C14H22ClN5O4Rh

> <NMREDATA_SMILES>
ClC[Rh](N1=CC=CC=C1)(O/N=C(/C(=N/O)/C)\C)O/N=C(/C(=N/O)/C)\C

> <NMREDATA_ASSIGNMENT>
Rh17, 2621.00, 17

> <NMREDATA_1D_103Rh>
2621.00, L=Rh17

$$$$
