
  ACD/LABS04042409552D

 62 68  0  0  0  0  0  0  0  0  2 V2000
   15.1268  -10.8002    0.0000 Rh   0  5  0  0  0  0  0  0  0  0  0  0
   13.6846   -9.3421    0.0000 I    0  0  0  0  0  0  0  0  0  0  0  0
   16.5208  -12.1142    0.0000 I    0  0  0  0  0  0  0  0  0  0  0  0
   16.8894   -9.6946    0.0000 Sb   0  3  0  0  0  0  0  0  0  0  0  0
   13.2039  -12.2264    0.0000 Sb   0  3  0  0  0  0  0  0  0  0  0  0
   18.7019  -10.6543    0.0000 C    0  0  0  0  0  0  0  0  0  0  0  0
   20.4393   -9.5645    0.0000 C    0  0  0  0  0  0  0  0  0  0  0  0
   18.7771  -12.7039    0.0000 C    0  0  0  0  0  0  0  0  0  0  0  0
   22.2519  -10.5244    0.0000 C    0  0  0  0  0  0  0  0  0  0  0  0
   20.5895  -13.6636    0.0000 C    0  0  0  0  0  0  0  0  0  0  0  0
   22.3269  -12.5738    0.0000 C    0  0  0  0  0  0  0  0  0  0  0  0
   16.8143   -7.6451    0.0000 C    0  0  0  0  0  0  0  0  0  0  0  0
   15.0018   -6.6853    0.0000 C    0  0  0  0  0  0  0  0  0  0  0  0
   18.5518   -6.5552    0.0000 C    0  0  0  0  0  0  0  0  0  0  0  0
   14.9268   -4.6357    0.0000 C    0  0  0  0  0  0  0  0  0  0  0  0
   18.4767   -4.5057    0.0000 C    0  0  0  0  0  0  0  0  0  0  0  0
   16.6642   -3.5459    0.0000 C    0  0  0  0  0  0  0  0  0  0  0  0
   11.3222  -11.4107    0.0000 C    0  0  0  0  0  0  0  0  0  0  0  0
    9.6749  -12.6324    0.0000 C    0  0  0  0  0  0  0  0  0  0  0  0
   11.0877   -9.3731    0.0000 C    0  0  0  0  0  0  0  0  0  0  0  0
    7.7931  -11.8165    0.0000 C    0  0  0  0  0  0  0  0  0  0  0  0
    9.2060   -8.5574    0.0000 C    0  0  0  0  0  0  0  0  0  0  0  0
    7.5587   -9.7791    0.0000 C    0  0  0  0  0  0  0  0  0  0  0  0
   13.4383  -14.2638    0.0000 C    0  0  0  0  0  0  0  0  0  0  0  0
   15.3200  -15.0796    0.0000 C    0  0  0  0  0  0  0  0  0  0  0  0
   11.7909  -15.4857    0.0000 C    0  0  0  0  0  0  0  0  0  0  0  0
   15.5543  -17.1172    0.0000 C    0  0  0  0  0  0  0  0  0  0  0  0
   12.0253  -17.5231    0.0000 C    0  0  0  0  0  0  0  0  0  0  0  0
   13.9070  -18.3389    0.0000 C    0  0  0  0  0  0  0  0  0  0  0  0
   18.5559   -8.2524    0.0000 C    0  0  0  0  0  0  0  0  0  0  0  0
   19.9500   -8.8133    0.0000 C    0  0  0  0  0  0  0  0  0  0  0  0
   20.8794   -8.1082    0.0000 C    0  0  0  0  0  0  0  0  0  0  0  0
   11.5213  -13.8448    0.0000 C    0  0  0  0  0  0  0  0  0  0  0  0
   10.1433  -13.8608    0.0000 C    0  0  0  0  0  0  0  0  0  0  0  0
    8.9414  -15.1268    0.0000 C    0  0  0  0  0  0  0  0  0  0  0  0
   22.4818   -8.5569    0.0000 Sb   0  0  0  0  0  0  0  0  0  0  0  0
    8.4287  -16.0401    0.0000 Sb   0  0  0  0  0  0  0  0  0  0  0  0
   23.9482   -7.1230    0.0000 C    0  0  0  0  0  0  0  0  0  0  0  0
   23.4396   -5.1362    0.0000 C    0  0  0  0  0  0  0  0  0  0  0  0
   25.9233   -7.6760    0.0000 C    0  0  0  0  0  0  0  0  0  0  0  0
   24.9062   -3.7023    0.0000 C    0  0  0  0  0  0  0  0  0  0  0  0
   27.3896   -6.2422    0.0000 C    0  0  0  0  0  0  0  0  0  0  0  0
   26.8810   -4.2553    0.0000 C    0  0  0  0  0  0  0  0  0  0  0  0
   22.9904  -10.5437    0.0000 C    0  0  0  0  0  0  0  0  0  0  0  0
   24.9653  -11.0967    0.0000 C    0  0  0  0  0  0  0  0  0  0  0  0
   21.5240  -11.9777    0.0000 C    0  0  0  0  0  0  0  0  0  0  0  0
   25.4738  -13.0837    0.0000 C    0  0  0  0  0  0  0  0  0  0  0  0
   22.0325  -13.9645    0.0000 C    0  0  0  0  0  0  0  0  0  0  0  0
   24.0075  -14.5175    0.0000 C    0  0  0  0  0  0  0  0  0  0  0  0
    6.3779  -16.0648    0.0000 C    0  0  0  0  0  0  0  0  0  0  0  0
    5.3739  -17.8532    0.0000 C    0  0  0  0  0  0  0  0  0  0  0  0
    5.3311  -14.3011    0.0000 C    0  0  0  0  0  0  0  0  0  0  0  0
    3.3230  -17.8778    0.0000 C    0  0  0  0  0  0  0  0  0  0  0  0
    3.2804  -14.3258    0.0000 C    0  0  0  0  0  0  0  0  0  0  0  0
    2.2764  -16.1141    0.0000 C    0  0  0  0  0  0  0  0  0  0  0  0
    9.4754  -17.8038    0.0000 C    0  0  0  0  0  0  0  0  0  0  0  0
   11.5262  -17.7791    0.0000 C    0  0  0  0  0  0  0  0  0  0  0  0
    8.4714  -19.5923    0.0000 C    0  0  0  0  0  0  0  0  0  0  0  0
   12.5729  -19.5429    0.0000 C    0  0  0  0  0  0  0  0  0  0  0  0
    9.5182  -21.3559    0.0000 C    0  0  0  0  0  0  0  0  0  0  0  0
   11.5689  -21.3312    0.0000 C    0  0  0  0  0  0  0  0  0  0  0  0
   28.9395  -10.9925    0.0000 I    0  5  0  0  0  0  0  0  0  0  0  0
  1  2  1  0  0  0  0
  1  3  1  0  0  0  0
  1  4  1  0  0  0  0
  1  5  1  0  0  0  0
  6  7  1  0  0  0  0
  6  8  2  0  0  0  0
  7  9  2  0  0  0  0
  8 10  1  0  0  0  0
  9 11  1  0  0  0  0
 10 11  2  0  0  0  0
  4  6  1  0  0  0  0
 12 13  1  0  0  0  0
 12 14  2  0  0  0  0
 13 15  2  0  0  0  0
 14 16  1  0  0  0  0
 15 17  1  0  0  0  0
 16 17  2  0  0  0  0
  4 12  1  0  0  0  0
 18 19  1  0  0  0  0
 18 20  2  0  0  0  0
 19 21  2  0  0  0  0
 20 22  1  0  0  0  0
 21 23  1  0  0  0  0
 22 23  2  0  0  0  0
  5 18  1  0  0  0  0
 24 25  1  0  0  0  0
 24 26  2  0  0  0  0
 25 27  2  0  0  0  0
 26 28  1  0  0  0  0
 27 29  1  0  0  0  0
 28 29  2  0  0  0  0
  5 24  1  0  0  0  0
  4 30  1  0  0  0  0
 30 31  1  0  0  0  0
 31 32  1  0  0  0  0
  5 33  1  0  0  0  0
 33 34  1  0  0  0  0
 34 35  1  0  0  0  0
 32 36  1  0  0  0  0
 35 37  1  0  0  0  0
 38 39  1  0  0  0  0
 38 40  2  0  0  0  0
 39 41  2  0  0  0  0
 40 42  1  0  0  0  0
 41 43  1  0  0  0  0
 42 43  2  0  0  0  0
 36 38  1  0  0  0  0
 44 45  1  0  0  0  0
 44 46  2  0  0  0  0
 45 47  2  0  0  0  0
 46 48  1  0  0  0  0
 47 49  1  0  0  0  0
 48 49  2  0  0  0  0
 36 44  1  0  0  0  0
 50 51  1  0  0  0  0
 50 52  2  0  0  0  0
 51 53  2  0  0  0  0
 52 54  1  0  0  0  0
 53 55  1  0  0  0  0
 54 55  2  0  0  0  0
 37 50  1  0  0  0  0
 56 57  1  0  0  0  0
 56 58  2  0  0  0  0
 57 59  2  0  0  0  0
 58 60  1  0  0  0  0
 59 61  1  0  0  0  0
 60 61  2  0  0  0  0
 37 56  1  0  0  0  0
M  END
> <NMREDATA_VERSION>
1.1

> <NMREDATA_LEVEL>
0

> <NMREDATA_SOLVENT>
CD2Cl2

> <NMREDATA_TEMPERATURE>
300

> <NMREDATA_FORMULA>
C54H55I3RhSb4

> <NMREDATA_SMILES>
I[Rh]([SbH](c1ccccc1)(c1ccccc1)CCC[Sb](c1ccccc1)c1ccccc1)([SbH](c1ccccc1)(c1ccccc1)CCC[Sb](c1ccccc1)c1ccccc1)I.I

> <NMREDATA_ASSIGNMENT>
Rh1, 1265.00, 1

> <NMREDATA_1D_103Rh>
1265.00, L=Rh1

$$$$
