
  ACD/LABS03152413022D

 59 67  0  0  0  0  0  0  0  0  1 V2000
   11.3676   -9.3983    0.0000 Rh   0  0  0  0  0  0  0  0  0  0  0  0
   11.1459   -8.0952    0.0000 I    0  0  0  0  0  0  0  0  0  0  0  0
   12.6796   -9.1770    0.0000 P    0  0  0  0  0  0  0  0  0  0  0  0
   12.4050  -15.3382    0.0000 P    0  0  0  0  0  0  0  0  0  0  0  0
    8.5224   -9.9038    0.0000 P    0  0  0  0  0  0  0  0  0  0  0  0
   13.8323   -5.8522    0.0000 C    0  0  0  0  0  0  0  0  0  0  0  0
   13.8323   -7.1822    0.0000 C    0  0  0  0  0  0  0  0  0  0  0  0
   12.6796   -5.1875    0.0000 C    0  0  0  0  0  0  0  0  0  0  0  0
   12.6796   -7.8470    0.0000 C    0  0  0  0  0  0  0  0  0  0  0  0
   11.5273   -5.8522    0.0000 C    0  0  0  0  0  0  0  0  0  0  0  0
   11.5273   -7.1822    0.0000 C    0  0  0  0  0  0  0  0  0  0  0  0
   16.6691   -9.1770    0.0000 C    0  0  0  0  0  0  0  0  0  0  0  0
   16.0043   -8.0243    0.0000 C    0  0  0  0  0  0  0  0  0  0  0  0
   16.0043  -10.3205    0.0000 C    0  0  0  0  0  0  0  0  0  0  0  0
   14.6743   -8.0243    0.0000 C    0  0  0  0  0  0  0  0  0  0  0  0
   14.6743  -10.3205    0.0000 C    0  0  0  0  0  0  0  0  0  0  0  0
   14.0096   -9.1770    0.0000 C    0  0  0  0  0  0  0  0  0  0  0  0
   13.8323  -12.4921    0.0000 C    0  0  0  0  0  0  0  0  0  0  0  0
   12.6796  -13.1569    0.0000 C    0  0  0  0  0  0  0  0  0  0  0  0
   13.8323  -11.1718    0.0000 C    0  0  0  0  0  0  0  0  0  0  0  0
   11.5273  -12.4921    0.0000 C    0  0  0  0  0  0  0  0  0  0  0  0
   12.6796  -10.5066    0.0000 C    0  0  0  0  0  0  0  0  0  0  0  0
   11.5273  -11.1718    0.0000 C    0  0  0  0  0  0  0  0  0  0  0  0
   10.6408  -16.8187    0.0000 C    0  0  0  0  0  0  0  0  0  0  0  0
    9.3376  -17.0492    0.0000 C    0  0  0  0  0  0  0  0  0  0  0  0
   11.1019  -15.5683    0.0000 C    0  0  0  0  0  0  0  0  0  0  0  0
    8.4867  -16.0294    0.0000 C    0  0  0  0  0  0  0  0  0  0  0  0
   10.2510  -14.5489    0.0000 C    0  0  0  0  0  0  0  0  0  0  0  0
    8.9478  -14.7795    0.0000 C    0  0  0  0  0  0  0  0  0  0  0  0
   14.1781  -13.8661    0.0000 C    0  0  0  0  0  0  0  0  0  0  0  0
   15.4812  -13.6360    0.0000 C    0  0  0  0  0  0  0  0  0  0  0  0
   13.7170  -15.1077    0.0000 C    0  0  0  0  0  0  0  0  0  0  0  0
   16.3414  -14.6554    0.0000 C    0  0  0  0  0  0  0  0  0  0  0  0
   14.5683  -16.1271    0.0000 C    0  0  0  0  0  0  0  0  0  0  0  0
   15.8803  -15.9053    0.0000 C    0  0  0  0  0  0  0  0  0  0  0  0
   12.6356  -16.6502    0.0000 C    0  0  0  0  0  0  0  0  0  0  0  0
   11.6157  -17.5011    0.0000 C    0  0  0  0  0  0  0  0  0  0  0  0
   13.8855  -17.1025    0.0000 C    0  0  0  0  0  0  0  0  0  0  0  0
   11.8463  -18.8135    0.0000 C    0  0  0  0  0  0  0  0  0  0  0  0
   14.1160  -18.4144    0.0000 C    0  0  0  0  0  0  0  0  0  0  0  0
   13.0966  -19.2653    0.0000 C    0  0  0  0  0  0  0  0  0  0  0  0
   10.0028  -11.6681    0.0000 C    0  0  0  0  0  0  0  0  0  0  0  0
   10.2334  -12.9708    0.0000 C    0  0  0  0  0  0  0  0  0  0  0  0
    8.7525  -11.2070    0.0000 C    0  0  0  0  0  0  0  0  0  0  0  0
    9.2136  -13.8221    0.0000 C    0  0  0  0  0  0  0  0  0  0  0  0
    7.7331  -12.0671    0.0000 C    0  0  0  0  0  0  0  0  0  0  0  0
    7.9636  -13.3610    0.0000 C    0  0  0  0  0  0  0  0  0  0  0  0
    8.2918   -8.5919    0.0000 C    0  0  0  0  0  0  0  0  0  0  0  0
    9.3112   -7.7406    0.0000 C    0  0  0  0  0  0  0  0  0  0  0  0
    7.0503   -8.1308    0.0000 C    0  0  0  0  0  0  0  0  0  0  0  0
    9.0895   -6.4286    0.0000 C    0  0  0  0  0  0  0  0  0  0  0  0
    6.8202   -6.8184    0.0000 C    0  0  0  0  0  0  0  0  0  0  0  0
    7.8396   -5.9675    0.0000 C    0  0  0  0  0  0  0  0  0  0  0  0
    6.7577  -11.3755    0.0000 C    0  0  0  0  0  0  0  0  0  0  0  0
    7.2100  -10.1256    0.0000 C    0  0  0  0  0  0  0  0  0  0  0  0
    5.4457  -11.6060    0.0000 C    0  0  0  0  0  0  0  0  0  0  0  0
    6.3591   -9.1057    0.0000 C    0  0  0  0  0  0  0  0  0  0  0  0
    4.5949  -10.5867    0.0000 C    0  0  0  0  0  0  0  0  0  0  0  0
    5.0467   -9.3363    0.0000 C    0  0  0  0  0  0  0  0  0  0  0  0
  1  2  1  0  0  0  0
  1  3  1  0  0  0  0
  1  4  1  0  0  0  0
  1  5  1  0  0  0  0
  6  7  1  0  0  0  0
  6  8  2  0  0  0  0
  7  9  2  0  0  0  0
  8 10  1  0  0  0  0
  9 11  1  0  0  0  0
 10 11  2  0  0  0  0
  3  9  1  0  0  0  0
 12 13  1  0  0  0  0
 12 14  2  0  0  0  0
 13 15  2  0  0  0  0
 14 16  1  0  0  0  0
 15 17  1  0  0  0  0
 16 17  2  0  0  0  0
  3 17  1  0  0  0  0
 18 19  1  0  0  0  0
 18 20  2  0  0  0  0
 19 21  2  0  0  0  0
 20 22  1  0  0  0  0
 21 23  1  0  0  0  0
 22 23  2  0  0  0  0
  3 22  1  0  0  0  0
 24 25  1  0  0  0  0
 24 26  2  0  0  0  0
 25 27  2  0  0  0  0
 26 28  1  0  0  0  0
 27 29  1  0  0  0  0
 28 29  2  0  0  0  0
  4 26  1  0  0  0  0
 30 31  1  0  0  0  0
 30 32  2  0  0  0  0
 31 33  2  0  0  0  0
 32 34  1  0  0  0  0
 33 35  1  0  0  0  0
 34 35  2  0  0  0  0
  4 32  1  0  0  0  0
 36 37  1  0  0  0  0
 36 38  2  0  0  0  0
 37 39  2  0  0  0  0
 38 40  1  0  0  0  0
 39 41  1  0  0  0  0
 40 41  2  0  0  0  0
  4 36  1  0  0  0  0
 42 43  1  0  0  0  0
 42 44  2  0  0  0  0
 43 45  2  0  0  0  0
 44 46  1  0  0  0  0
 45 47  1  0  0  0  0
 46 47  2  0  0  0  0
  5 44  1  0  0  0  0
 48 49  1  0  0  0  0
 48 50  2  0  0  0  0
 49 51  2  0  0  0  0
 50 52  1  0  0  0  0
 51 53  1  0  0  0  0
 52 53  2  0  0  0  0
  5 48  1  0  0  0  0
 54 55  1  0  0  0  0
 54 56  2  0  0  0  0
 55 57  2  0  0  0  0
 56 58  1  0  0  0  0
 57 59  1  0  0  0  0
 58 59  2  0  0  0  0
  5 55  1  0  0  0  0
M  END
> <NMREDATA_VERSION>
1.1

> <NMREDATA_LEVEL>
0

> <NMREDATA_SOLVENT>
CD2Cl2

> <NMREDATA_TEMPERATURE>
260

> <NMREDATA_FORMULA>
C54H48IP3Rh

> <NMREDATA_SMILES>
I[Rh](P(c1ccccc1)(c1ccccc1)c1ccccc1)(P(c1ccccc1)(c1ccccc1)c1ccccc1)P(c1ccccc1)(c1ccccc1)c1ccccc1

> <NMREDATA_ASSIGNMENT>
Rh1, -267.00, 1

> <NMREDATA_1D_103Rh>
-267.00, L=Rh1

$$$$
