
  ACD/LABS02232411242D

 41 45  0  0  0  0  0  0  0  0  2 V2000
   24.7860   -7.6833    0.0000 Cl   0  0  0  0  0  0  0  0  0  0  0  0
   21.0114   -5.5040    0.0000 O    0  0  0  0  0  0  0  0  0  0  0  0
   22.6067  -11.4579    0.0000 O    0  0  0  0  0  0  0  0  0  0  0  0
   26.9653   -3.9087    0.0000 O    0  0  0  0  0  0  0  0  0  0  0  0
   28.5606   -9.8626    0.0000 O    0  5  0  0  0  0  0  0  0  0  0  0
   11.5445   -1.5318    0.0000 C    0  0  0  0  0  0  0  0  0  0  0  0
   12.6963   -0.8668    0.0000 C    0  0  0  0  0  0  0  0  0  0  0  0
   11.5445   -2.8618    0.0000 C    0  0  0  0  0  0  0  0  0  0  0  0
   13.8481   -1.5318    0.0000 C    0  0  0  0  0  0  0  0  0  0  0  0
   12.6963   -3.5268    0.0000 C    0  0  0  0  0  0  0  0  0  0  0  0
   13.8481   -2.8618    0.0000 C    0  0  0  0  0  0  0  0  0  0  0  0
   11.5445   -6.8518    0.0000 C    0  0  0  0  0  0  0  0  0  0  0  0
   10.3927   -7.5168    0.0000 C    0  0  0  0  0  0  0  0  0  0  0  0
   11.5445   -5.5218    0.0000 C    0  0  0  0  0  0  0  0  0  0  0  0
    9.2409   -6.8518    0.0000 C    0  0  0  0  0  0  0  0  0  0  0  0
   10.3927   -4.8568    0.0000 C    0  0  0  0  0  0  0  0  0  0  0  0
    9.2409   -5.5218    0.0000 C    0  0  0  0  0  0  0  0  0  0  0  0
   16.9949   -4.0614    0.0000 C    0  0  0  0  0  0  0  0  0  0  0  0
   17.6599   -5.2132    0.0000 C    0  0  0  0  0  0  0  0  0  0  0  0
   15.6649   -4.0614    0.0000 C    0  0  0  0  0  0  0  0  0  0  0  0
   16.9949   -6.3650    0.0000 C    0  0  0  0  0  0  0  0  0  0  0  0
   14.9999   -5.2132    0.0000 C    0  0  0  0  0  0  0  0  0  0  0  0
   15.6649   -6.3650    0.0000 C    0  0  0  0  0  0  0  0  0  0  0  0
   12.3400   -9.8204    0.0000 C    0  0  0  0  0  0  0  0  0  0  0  0
   13.0050   -8.6686    0.0000 C    0  0  0  0  0  0  0  0  0  0  0  0
   13.0050  -10.9723    0.0000 C    0  0  0  0  0  0  0  0  0  0  0  0
   14.3350   -8.6686    0.0000 C    0  0  0  0  0  0  0  0  0  0  0  0
   14.3350  -10.9722    0.0000 C    0  0  0  0  0  0  0  0  0  0  0  0
   15.0000   -9.8204    0.0000 C    0  0  0  0  0  0  0  0  0  0  0  0
   17.3036   -8.2847    0.0000 C    0  0  0  0  0  0  0  0  0  0  0  0
   16.6386   -7.1329    0.0000 C    0  0  0  0  0  0  0  0  0  0  0  0
   17.3036   -5.9810    0.0000 C    0  0  0  0  0  0  0  0  0  0  0  0
   18.6336   -5.9810    0.0000 C    0  0  0  0  0  0  0  0  0  0  0  0
   19.2986   -7.1329    0.0000 C    0  0  0  0  0  0  0  0  0  0  0  0
   18.6336   -8.2847    0.0000 C    0  0  0  0  0  0  0  0  0  0  0  0
   17.3036   -7.5168    0.0000 C    0  0  0  0  0  0  0  0  0  0  0  0
   16.1518   -8.1818    0.0000 Rh   0  3  0  0  0  0  0  0  0  0  0  0
   14.9999   -7.5168    0.0000 P    0  0  0  0  0  0  0  0  0  0  0  0
   13.8481   -6.8518    0.0000 C    0  0  0  0  0  0  0  0  0  0  0  0
   13.8481   -5.5218    0.0000 C    0  0  0  0  0  0  0  0  0  0  0  0
   12.6963   -4.8568    0.0000 P    0  0  0  0  0  0  0  0  0  0  0  0
  1  2  2  0  0  0  0
  1  3  2  0  0  0  0
  1  4  2  0  0  0  0
  1  5  1  0  0  0  0
  6  7  1  0  0  0  0
  6  8  2  0  0  0  0
  7  9  2  0  0  0  0
  8 10  1  0  0  0  0
  9 11  1  0  0  0  0
 10 11  2  0  0  0  0
 12 13  1  0  0  0  0
 12 14  2  0  0  0  0
 13 15  2  0  0  0  0
 14 16  1  0  0  0  0
 15 17  1  0  0  0  0
 16 17  2  0  0  0  0
 18 19  1  0  0  0  0
 18 20  2  0  0  0  0
 19 21  2  0  0  0  0
 20 22  1  0  0  0  0
 21 23  1  0  0  0  0
 22 23  2  0  0  0  0
 24 25  1  0  0  0  0
 24 26  2  0  0  0  0
 25 27  2  0  0  0  0
 26 28  1  0  0  0  0
 27 29  1  0  0  0  0
 28 29  2  0  0  0  0
 30 31  2  0  0  0  0
 31 32  1  0  0  0  0
 32 33  1  0  0  0  0
 33 34  2  0  0  0  0
 34 35  1  0  0  0  0
 35 30  1  0  0  0  0
 35 36  1  0  0  0  0
 36 32  1  0  0  0  0
 37 38  1  0  0  0  0
 38 39  1  0  0  0  0
 36 37  1  0  0  0  0
 40 41  1  0  0  0  0
 39 40  1  0  0  0  0
 27 38  1  0  0  0  0
 23 38  1  0  0  0  0
 14 41  1  0  0  0  0
 10 41  1  0  0  0  0
M  END
> <NMREDATA_VERSION>
1.1

> <NMREDATA_LEVEL>
0

> <NMREDATA_SOLVENT>
CD2Cl2

> <NMREDATA_TEMPERATURE>
298

> <NMREDATA_FORMULA>
C33H33ClO4P2Rh

> <NMREDATA_SMILES>
c1ccc(cc1)P(c1ccccc1)CCP(c1ccccc1)(c1ccccc1)[Rh]C1C2C=CC1C=C2.O[Cl](=O)(=O)=O

> <NMREDATA_ASSIGNMENT>
Rh37, -390.00, 37

> <NMREDATA_1D_103Rh>
-390.00, L=Rh37

$$$$
