
  ACD/LABS03252414522D

 27 28  0  0  0  0  0  0  0  0  1 V2000
   16.2118  -12.2010    0.0000 C    0  0  0  0  0  0  0  0  0  0  0  0
   17.3636  -12.8660    0.0000 C    0  0  0  0  0  0  0  0  0  0  0  0
   16.2033  -10.8858    0.0000 C    0  0  0  0  0  0  0  0  0  0  0  0
   18.5072  -12.2160    0.0000 C    0  0  0  0  0  0  0  0  0  0  0  0
   17.3555  -10.2200    0.0000 C    0  0  0  0  0  0  0  0  0  0  0  0
   18.5074  -10.8850    0.0000 C    0  0  0  0  0  0  0  0  0  0  0  0
   13.8993   -9.5556    0.0000 Rh   0  0  0  0  0  0  0  0  0  0  0  0
   13.8998   -8.2249    0.0000 C    0  0  0  0  0  0  0  0  0  0  0  0
   12.5988   -7.9959    0.0000 F    0  0  0  0  0  0  0  0  0  0  0  0
   15.2129   -7.9897    0.0000 F    0  0  0  0  0  0  0  0  0  0  0  0
   13.9083   -6.8983    0.0000 F    0  0  0  0  0  0  0  0  0  0  0  0
   15.0516   -8.8899    0.0000 Cl   0  0  0  0  0  0  0  0  0  0  0  0
   13.9078  -10.8709    0.0000 I    0  0  0  0  0  0  0  0  0  0  0  0
   15.0511  -10.2206    0.0000 P    0  0  0  0  0  0  0  0  0  0  0  0
   14.6038  -11.4567    0.0000 C    0  0  0  0  0  0  0  0  0  0  0  0
   15.9072   -9.1993    0.0000 C    0  0  0  0  0  0  0  0  0  0  0  0
   12.8839  -10.3924    0.0000 C    0  0  0  0  0  0  0  0  0  0  0  0
   11.8750  -11.2536    0.0000 O    0  0  0  0  0  0  0  0  0  0  0  0
   11.3962   -8.1105    0.0000 P    0  0  0  0  0  0  0  0  0  0  0  0
   10.5494   -9.1159    0.0000 C    0  0  0  0  0  0  0  0  0  0  0  0
   11.8527   -6.8585    0.0000 C    0  0  0  0  0  0  0  0  0  0  0  0
   10.2441   -7.4453    0.0000 C    0  0  0  0  0  0  0  0  0  0  0  0
   10.2445   -6.1145    0.0000 C    0  0  0  0  0  0  0  0  0  0  0  0
    9.1008   -8.0955    0.0000 C    0  0  0  0  0  0  0  0  0  0  0  0
    9.0927   -5.4495    0.0000 C    0  0  0  0  0  0  0  0  0  0  0  0
    7.9490   -7.4305    0.0000 C    0  0  0  0  0  0  0  0  0  0  0  0
    7.9401   -6.1151    0.0000 C    0  0  0  0  0  0  0  0  0  0  0  0
  1  2  1  0  0  0  0
  1  3  2  0  0  0  0
  2  4  2  0  0  0  0
  3  5  1  0  0  0  0
  4  6  1  0  0  0  0
  5  6  2  0  0  0  0
  7  8  1  0  0  0  0
  8  9  1  0  0  0  0
  8 10  1  0  0  0  0
  8 11  1  0  0  0  0
  7 12  1  0  0  0  0
  7 13  1  0  0  0  0
  7 14  1  0  0  0  0
 14 15  1  0  0  0  0
 14 16  1  0  0  0  0
  3 14  1  0  0  0  0
  7 17  1  0  0  0  0
 17 18  3  0  0  0  0
  7 19  1  0  0  0  0
 19 20  1  0  0  0  0
 19 21  1  0  0  0  0
 22 23  1  0  0  0  0
 22 24  2  0  0  0  0
 23 25  2  0  0  0  0
 24 26  1  0  0  0  0
 25 27  1  0  0  0  0
 26 27  2  0  0  0  0
 19 22  1  0  0  0  0
M  END
> <NMREDATA_VERSION>
1.1

> <NMREDATA_LEVEL>
0

> <NMREDATA_SOLVENT>
C6D6

> <NMREDATA_TEMPERATURE>
297

> <NMREDATA_FORMULA>
C18H24ClF3IOP2Rh

> <NMREDATA_SMILES>
[O]#C[Rh](P(c1ccccc1)(C)C)(P(c1ccccc1)(C)C)(C(F)(F)F)(I)Cl

> <NMREDATA_ASSIGNMENT>
Rh7, 706.00, 7

> <NMREDATA_1D_103Rh>
706.00, L=Rh7

$$$$
