
  ACD/LABS03072417283D

 27 33  0  0  0  0  0  0  0  0  1 V2000
   14.9605  -18.2451    0.0000 C    0  0  0  0  0  0  0  0  0  0  0  0
   14.8716  -16.9663    0.0000 C    0  0  0  0  0  0  0  0  0  0  0  0
   13.7196  -16.4038    0.0000 C    0  0  0  0  0  0  0  0  0  0  0  0
   12.6566  -17.1203    0.0000 C    0  0  0  0  0  0  0  0  0  0  0  0
   12.7455  -18.3991    0.0000 C    0  0  0  0  0  0  0  0  0  0  0  0
   13.8974  -18.9615    0.0000 C    0  0  0  0  0  0  0  0  0  0  0  0
   14.5469  -17.6313    0.0000 C    0  0  0  0  0  0  0  0  0  0  0  0
   16.3890  -15.6120    0.0000 Rh   0  0  0  0  0  0  0  0  0  0  0  0
   17.6567  -13.4042    0.0000 N    0  0  0  0  0  0  0  0  0  0  0  0
   17.6567  -14.7342    0.0000 N    0  0  0  0  0  0  0  0  0  0  0  0
   16.5048  -12.7392    0.0000 B    0  0  0  0  0  0  0  0  0  0  0  0
   15.3530  -13.4042    0.0000 N    0  0  0  0  0  0  0  0  0  0  0  0
   15.3530  -14.7342    0.0000 N    0  0  0  0  0  0  0  0  0  0  0  0
   18.9215  -12.9932    0.0000 C    0  0  0  0  0  0  0  0  0  0  0  0
   19.7033  -14.0692    0.0000 C    0  0  0  0  0  0  0  0  0  0  0  0
   18.9217  -15.1452    0.0000 C    0  0  0  0  0  0  0  0  0  0  0  0
   14.0881  -12.9932    0.0000 C    0  0  0  0  0  0  0  0  0  0  0  0
   13.3064  -14.0692    0.0000 C    0  0  0  0  0  0  0  0  0  0  0  0
   14.0880  -15.1452    0.0000 C    0  0  0  0  0  0  0  0  0  0  0  0
   14.4514   -9.0351    0.0000 C    0  0  0  0  0  0  0  0  0  0  0  0
   15.5281   -8.2543    0.0000 C    0  0  0  0  0  0  0  0  0  0  0  0
   14.8613  -10.3004    0.0000 N    0  0  0  0  0  0  0  0  0  0  0  0
   16.6033   -9.0370    0.0000 C    0  0  0  0  0  0  0  0  0  0  0  0
   16.1914  -10.3016    0.0000 N    0  0  0  0  0  0  0  0  0  0  0  0
   18.0271  -11.8418    0.0000 H    0  0  0  0  0  0  0  0  0  0  0  0
   13.1868   -8.6230    0.0000 C    0  0  0  0  0  0  0  0  0  0  0  0
   17.8686   -8.6271    0.0000 C    0  0  0  0  0  0  0  0  0  0  0  0
  1  2  2  0  0  0  0
  2  3  1  0  0  0  0
  3  4  1  0  0  0  0
  4  5  2  0  0  0  0
  1  6  1  0  0  0  0
  6  5  1  0  0  0  0
  6  7  1  0  0  0  0
  3  7  1  0  0  0  0
  9 11  1  0  0  0  0
 11 12  1  0  0  0  0
  9 14  1  0  0  0  0
  9 10  1  0  0  0  0
 14 15  2  0  0  0  0
 10 16  2  0  0  0  0
 15 16  1  0  0  0  0
 12 17  1  0  0  0  0
 12 13  1  0  0  0  0
 17 18  2  0  0  0  0
 13 19  2  0  0  0  0
 18 19  1  0  0  0  0
 20 21  1  0  0  0  0
 20 22  2  0  0  0  0
 21 23  2  0  0  0  0
 22 24  1  0  0  0  0
 23 24  1  0  0  0  0
 11 24  1  0  0  0  0
 11 25  1  0  0  0  0
  8 10  1  0  0  0  0
  8 13  1  0  0  0  0
  8 22  1  0  0  0  0
 20 26  1  0  0  0  0
 23 27  1  0  0  0  0
  7  8  1  0  0  0  0
M  END
> <NMREDATA_VERSION>
1.1

> <NMREDATA_LEVEL>
0

> <NMREDATA_SOLVENT>
DCCl3

> <NMREDATA_TEMPERATURE>
298

> <NMREDATA_FORMULA>
C18H24BN6Rh

> <NMREDATA_SMILES>
CC1=CC(=N2N1[BH]1N3C=CC=N3[Rh]2(N2=CC=CN12)C1C2C=CC1C=C2)C

> <NMREDATA_ASSIGNMENT>
Rh8, 1777.00, 8

> <NMREDATA_1D_103Rh>
1777.00, L=Rh8

$$$$
