
  ACD/LABS03222419132D

 40 42  0  0  0  0  0  0  0  0  1 V2000
   16.7719   -8.2330    0.0000 C    0  0  0  0  0  0  0  0  0  0  0  0
   15.7996   -9.0627    0.0000 C    0  0  0  0  0  0  0  0  0  0  0  0
   17.0043   -6.9760    0.0000 C    0  0  0  0  0  0  0  0  0  0  0  0
   15.6620   -7.5922    0.0000 C    0  0  0  0  0  0  0  0  0  0  0  0
   16.8553  -12.1391    0.0000 C    0  0  0  0  0  0  0  0  0  0  0  0
   17.6688  -13.1216    0.0000 C    0  0  0  0  0  0  0  0  0  0  0  0
   17.2955  -10.9325    0.0000 C    0  0  0  0  0  0  0  0  0  0  0  0
   18.9299  -12.9027    0.0000 C    0  0  0  0  0  0  0  0  0  0  0  0
   18.5488  -10.7091    0.0000 C    0  0  0  0  0  0  0  0  0  0  0  0
   19.3699  -11.6965    0.0000 C    0  0  0  0  0  0  0  0  0  0  0  0
   17.8871   -2.2170    0.0000 O    0  0  0  0  0  0  0  0  0  0  0  0
   18.5287   -3.3271    0.0000 N    0  0  0  0  0  0  0  0  0  0  0  0
   17.8877   -4.4373    0.0000 C    0  0  0  0  0  0  0  0  0  0  0  0
   16.6054   -4.4370    0.0000 C    0  0  0  0  0  0  0  0  0  0  0  0
   18.5219   -5.5436    0.0000 C    0  0  0  0  0  0  0  0  0  0  0  0
   19.8046   -5.5440    0.0000 C    0  0  0  0  0  0  0  0  0  0  0  0
   17.8812   -6.6534    0.0000 N    0  0  0  0  0  0  0  0  0  0  0  0
   18.5229   -7.7641    0.0000 O    0  0  0  0  0  0  0  0  0  0  0  0
   12.1195  -12.2067    0.0000 O    0  0  0  0  0  0  0  0  0  0  0  0
   13.4060  -12.1998    0.0000 N    0  0  0  0  0  0  0  0  0  0  0  0
   14.0470  -11.0896    0.0000 C    0  0  0  0  0  0  0  0  0  0  0  0
   13.4013   -9.9867    0.0000 C    0  0  0  0  0  0  0  0  0  0  0  0
   15.3220  -11.0861    0.0000 C    0  0  0  0  0  0  0  0  0  0  0  0
   15.9639  -12.1964    0.0000 C    0  0  0  0  0  0  0  0  0  0  0  0
   15.9630   -9.9759    0.0000 N    0  0  0  0  0  0  0  0  0  0  0  0
   17.2456   -9.9763    0.0000 O    0  0  0  0  0  0  0  0  0  0  0  0
   17.8821   -8.8739    0.0000 Rh   0  0  0  0  0  0  0  0  0  0  0  0
   18.9842   -9.5102    0.0000 P    0  0  0  0  0  0  0  0  0  0  0  0
   20.0943  -10.1512    0.0000 C    0  0  0  0  0  0  0  0  0  0  0  0
   21.2005   -9.5173    0.0000 C    0  0  0  0  0  0  0  0  0  0  0  0
   20.0984  -11.4261    0.0000 C    0  0  0  0  0  0  0  0  0  0  0  0
   22.3103  -10.1580    0.0000 C    0  0  0  0  0  0  0  0  0  0  0  0
   21.2083  -12.0668    0.0000 C    0  0  0  0  0  0  0  0  0  0  0  0
   22.3144  -11.4329    0.0000 C    0  0  0  0  0  0  0  0  0  0  0  0
   19.8048   -8.5337    0.0000 C    0  0  0  0  0  0  0  0  0  0  0  0
   19.3716   -7.3366    0.0000 C    0  0  0  0  0  0  0  0  0  0  0  0
   21.0704   -8.7512    0.0000 C    0  0  0  0  0  0  0  0  0  0  0  0
   20.1964   -6.3521    0.0000 C    0  0  0  0  0  0  0  0  0  0  0  0
   21.8950   -7.7670    0.0000 C    0  0  0  0  0  0  0  0  0  0  0  0
   21.4540   -6.5654    0.0000 C    0  0  0  0  0  0  0  0  0  0  0  0
  1  2  1  0  0  0  0
  1  3  1  0  0  0  0
  1  4  1  0  0  0  0
  5  6  1  0  0  0  0
  5  7  2  0  0  0  0
  6  8  2  0  0  0  0
  7  9  1  0  0  0  0
  8 10  1  0  0  0  0
  9 10  2  0  0  0  0
 11 12  1  0  0  0  0
 12 13  2  0  0  0  0
 13 14  1  0  0  0  0
 13 15  1  0  0  0  0
 15 16  1  0  0  0  0
 15 17  2  0  0  0  0
 17 18  1  0  0  0  0
 19 20  1  0  0  0  0
 20 21  2  0  0  0  0
 21 22  1  0  0  0  0
 21 23  1  0  0  0  0
 23 24  1  0  0  0  0
 23 25  2  0  0  0  0
 25 26  1  0  0  0  0
 26 27  1  0  0  0  0
 18 27  1  0  0  0  0
 27 28  1  0  0  0  0
 29 30  1  0  0  0  0
 29 31  2  0  0  0  0
 30 32  2  0  0  0  0
 31 33  1  0  0  0  0
 32 34  1  0  0  0  0
 33 34  2  0  0  0  0
 28 29  1  0  0  0  0
 35 36  1  0  0  0  0
 35 37  2  0  0  0  0
 36 38  2  0  0  0  0
 37 39  1  0  0  0  0
 38 40  1  0  0  0  0
 39 40  2  0  0  0  0
 28 35  1  0  0  0  0
  9 28  1  0  0  0  0
  1 27  1  0  0  0  0
M  END
> <NMREDATA_VERSION>
1.1

> <NMREDATA_LEVEL>
0

> <NMREDATA_SOLVENT>
DCCl3

> <NMREDATA_TEMPERATURE>
298

> <NMREDATA_FORMULA>
C30H39N4O4PRh

> <NMREDATA_SMILES>
O/N=C(/C(=N/O[Rh](P(c1ccccc1)(c1ccccc1)c1ccccc1)(C(C)(C)C)O/N=C(/C(=N/O)/C)\C)/C)\C

> <NMREDATA_ASSIGNMENT>
Rh27, 2196.00, 27

> <NMREDATA_1D_103Rh>
2196.00, L=Rh27

$$$$
