
  ACD/LABS03222419102D

 37 39  0  0  0  0  0  0  0  0  1 V2000
   22.7679   -9.1596    0.0000 C    0  0  0  0  0  0  0  0  0  0  0  0
   22.7679  -10.4416    0.0000 C    0  0  0  0  0  0  0  0  0  0  0  0
   21.6577   -8.5187    0.0000 C    0  0  0  0  0  0  0  0  0  0  0  0
   21.6577  -11.0825    0.0000 C    0  0  0  0  0  0  0  0  0  0  0  0
   20.5475   -9.1596    0.0000 C    0  0  0  0  0  0  0  0  0  0  0  0
   20.5475  -10.4416    0.0000 C    0  0  0  0  0  0  0  0  0  0  0  0
   11.6660   -7.8777    0.0000 O    0  0  0  0  0  0  0  0  0  0  0  0
   12.7762   -7.2368    0.0000 N    0  0  0  0  0  0  0  0  0  0  0  0
   13.8864   -7.8777    0.0000 C    0  0  0  0  0  0  0  0  0  0  0  0
   13.8864   -9.1596    0.0000 C    0  0  0  0  0  0  0  0  0  0  0  0
   14.9966   -7.2368    0.0000 C    0  0  0  0  0  0  0  0  0  0  0  0
   14.9966   -5.9548    0.0000 C    0  0  0  0  0  0  0  0  0  0  0  0
   16.1068   -7.8777    0.0000 N    0  0  0  0  0  0  0  0  0  0  0  0
   17.2169   -7.2368    0.0000 O    0  0  0  0  0  0  0  0  0  0  0  0
   12.5585   -8.9879    0.0000 O    0  0  0  0  0  0  0  0  0  0  0  0
   13.8404   -8.9879    0.0000 N    0  0  0  0  0  0  0  0  0  0  0  0
   14.4813  -10.0981    0.0000 C    0  0  0  0  0  0  0  0  0  0  0  0
   13.8404  -11.2083    0.0000 C    0  0  0  0  0  0  0  0  0  0  0  0
   15.7633  -10.0981    0.0000 C    0  0  0  0  0  0  0  0  0  0  0  0
   16.4042  -11.2083    0.0000 C    0  0  0  0  0  0  0  0  0  0  0  0
   16.4042   -8.9879    0.0000 N    0  0  0  0  0  0  0  0  0  0  0  0
   17.6862   -8.9879    0.0000 O    0  0  0  0  0  0  0  0  0  0  0  0
   18.3271   -7.8777    0.0000 Rh   0  0  0  0  0  0  0  0  0  0  0  0
   18.9681   -6.7675    0.0000 C    0  0  0  0  0  0  0  0  0  0  0  0
   19.4373   -8.5187    0.0000 P    0  0  0  0  0  0  0  0  0  0  0  0
   18.7964   -9.6289    0.0000 C    0  0  0  0  0  0  0  0  0  0  0  0
   19.4373  -10.7390    0.0000 C    0  0  0  0  0  0  0  0  0  0  0  0
   17.5144   -9.6289    0.0000 C    0  0  0  0  0  0  0  0  0  0  0  0
   18.7964  -11.8492    0.0000 C    0  0  0  0  0  0  0  0  0  0  0  0
   16.8735  -10.7390    0.0000 C    0  0  0  0  0  0  0  0  0  0  0  0
   17.5144  -11.8492    0.0000 C    0  0  0  0  0  0  0  0  0  0  0  0
   20.0783   -7.4085    0.0000 C    0  0  0  0  0  0  0  0  0  0  0  0
   19.4373   -6.2983    0.0000 C    0  0  0  0  0  0  0  0  0  0  0  0
   21.3602   -7.4085    0.0000 C    0  0  0  0  0  0  0  0  0  0  0  0
   20.0783   -5.1881    0.0000 C    0  0  0  0  0  0  0  0  0  0  0  0
   22.0012   -6.2983    0.0000 C    0  0  0  0  0  0  0  0  0  0  0  0
   21.3602   -5.1881    0.0000 C    0  0  0  0  0  0  0  0  0  0  0  0
  1  2  1  0  0  0  0
  1  3  2  0  0  0  0
  2  4  2  0  0  0  0
  3  5  1  0  0  0  0
  4  6  1  0  0  0  0
  5  6  2  0  0  0  0
  7  8  1  0  0  0  0
  8  9  2  0  0  0  0
  9 10  1  0  0  0  0
  9 11  1  0  0  0  0
 11 12  1  0  0  0  0
 11 13  2  0  0  0  0
 13 14  1  0  0  0  0
 15 16  1  0  0  0  0
 16 17  2  0  0  0  0
 17 18  1  0  0  0  0
 17 19  1  0  0  0  0
 19 20  1  0  0  0  0
 19 21  2  0  0  0  0
 21 22  1  0  0  0  0
 22 23  1  0  0  0  0
 14 23  1  0  0  0  0
 23 24  1  0  0  0  0
 23 25  1  0  0  0  0
 26 27  1  0  0  0  0
 26 28  2  0  0  0  0
 27 29  2  0  0  0  0
 28 30  1  0  0  0  0
 29 31  1  0  0  0  0
 30 31  2  0  0  0  0
 25 26  1  0  0  0  0
 32 33  1  0  0  0  0
 32 34  2  0  0  0  0
 33 35  2  0  0  0  0
 34 36  1  0  0  0  0
 35 37  1  0  0  0  0
 36 37  2  0  0  0  0
 25 32  1  0  0  0  0
  5 25  1  0  0  0  0
M  END
> <NMREDATA_VERSION>
1.1

> <NMREDATA_LEVEL>
0

> <NMREDATA_SOLVENT>
DCCl3

> <NMREDATA_TEMPERATURE>
298

> <NMREDATA_FORMULA>
C27H33N4O4PRh

> <NMREDATA_SMILES>
O/N=C(/C(=N/O[Rh](P(c1ccccc1)(c1ccccc1)c1ccccc1)(O/N=C(/C(=N/O)/C)\C)C)/C)\C

> <NMREDATA_ASSIGNMENT>
Rh23, 2038.00, 23

> <NMREDATA_1D_103Rh>
2038.00, L=Rh23

$$$$
