
  ACD/LABS02072409492D

 31 34  0  0  0  0  0  0  0  0  1 V2000
   15.1066  -11.6963    0.0000 C    0  0  0  0  0  0  0  0  0  0  0  0
   15.4039  -10.3999    0.0000 C    0  0  0  0  0  0  0  0  0  0  0  0
   15.9349  -12.7369    0.0000 C    0  0  0  0  0  0  0  0  0  0  0  0
   16.6027   -9.8239    0.0000 C    0  0  0  0  0  0  0  0  0  0  0  0
   17.2650  -12.7380    0.0000 C    0  0  0  0  0  0  0  0  0  0  0  0
   18.0953  -11.6990    0.0000 C    0  0  0  0  0  0  0  0  0  0  0  0
   17.8005  -10.4020    0.0000 C    0  0  0  0  0  0  0  0  0  0  0  0
   20.8753   -9.7734    0.0000 C    0  0  0  0  0  0  0  0  0  0  0  0
   21.1726   -8.4770    0.0000 C    0  0  0  0  0  0  0  0  0  0  0  0
   21.7036  -10.8140    0.0000 C    0  0  0  0  0  0  0  0  0  0  0  0
   22.3714   -7.9010    0.0000 C    0  0  0  0  0  0  0  0  0  0  0  0
   23.0336  -10.8152    0.0000 C    0  0  0  0  0  0  0  0  0  0  0  0
   23.8640   -9.7761    0.0000 C    0  0  0  0  0  0  0  0  0  0  0  0
   23.5692   -8.4791    0.0000 C    0  0  0  0  0  0  0  0  0  0  0  0
    9.2459   -6.2013    0.0000 B    0  0  0  0  0  0  0  0  0  0  0  0
    5.1574   -6.6956    0.0000 C    0  0  0  0  0  0  0  0  0  0  0  0
    6.2341   -5.9148    0.0000 N    0  0  0  0  0  0  0  0  0  0  0  0
    5.5673   -7.9609    0.0000 C    0  0  0  0  0  0  0  0  0  0  0  0
    7.3094   -6.6975    0.0000 N    0  0  0  0  0  0  0  0  0  0  0  0
    6.8974   -7.9621    0.0000 C    0  0  0  0  0  0  0  0  0  0  0  0
    3.9740   -5.8808    0.0000 C    0  0  0  0  0  0  0  0  0  0  0  0
    7.6595   -9.1017    0.0000 C    0  0  0  0  0  0  0  0  0  0  0  0
   12.2104   -6.6981    0.0000 Rh   0  0  0  0  0  0  0  0  0  0  0  0
   16.4247   -7.3711    0.0000 P    0  0  0  0  0  0  0  0  0  0  0  0
   20.1062   -4.9662    0.0000 C    0  0  0  0  0  0  0  0  0  0  0  0
   20.4035   -3.6697    0.0000 C    0  0  0  0  0  0  0  0  0  0  0  0
   20.9345   -6.0068    0.0000 C    0  0  0  0  0  0  0  0  0  0  0  0
   21.6023   -3.0938    0.0000 C    0  0  0  0  0  0  0  0  0  0  0  0
   22.2645   -6.0079    0.0000 C    0  0  0  0  0  0  0  0  0  0  0  0
   23.0948   -4.9689    0.0000 C    0  0  0  0  0  0  0  0  0  0  0  0
   22.8001   -3.6719    0.0000 C    0  0  0  0  0  0  0  0  0  0  0  0
  1  2  1  0  0  0  0
  1  3  2  0  0  0  0
  2  4  1  0  0  0  0
  3  5  1  0  0  0  0
  4  7  2  0  0  0  0
  5  6  2  0  0  0  0
  6  7  1  0  0  0  0
  8  9  1  0  0  0  0
  8 10  2  0  0  0  0
  9 11  1  0  0  0  0
 10 12  1  0  0  0  0
 11 14  2  0  0  0  0
 12 13  2  0  0  0  0
 13 14  1  0  0  0  0
 16 17  2  0  0  0  0
 16 18  1  0  0  0  0
 17 19  1  0  0  0  0
 18 20  2  0  0  0  0
 19 20  1  0  0  0  0
 15 19  1  0  0  0  0
 16 21  1  0  0  0  0
 20 22  1  0  0  0  0
 15 23  1  0  0  0  0
 23 24  1  0  0  0  0
 25 26  1  0  0  0  0
 25 27  2  0  0  0  0
 26 28  1  0  0  0  0
 27 29  1  0  0  0  0
 28 31  2  0  0  0  0
 29 30  2  0  0  0  0
 30 31  1  0  0  0  0
 24 26  1  0  0  0  0
  9 24  1  0  0  0  0
  4 24  1  0  0  0  0
M  END
> <NMREDATA_VERSION>
1.1

> <NMREDATA_LEVEL>
0

> <NMREDATA_SOLVENT>
C6D6

> <NMREDATA_FORMULA>
C26H30BN2PRh

> <NMREDATA_SMILES>
Cc1nn(c(c1)C)B[Rh]P(C1=CC=CC=CC1)(C1C=CC=CC=C1)C1C=CC=CC=C1

> <NMREDATA_ASSIGNMENT>
Rh23, 1175.00, 23

> <NMREDATA_1D_103Rh>
1175.00, L=Rh23

$$$$
