
  ACD/LABS02122411442D

 18 18  0  0  0  0  0  0  0  0  1 V2000
   17.4762  -11.5816    0.0000 C    0  0  0  0  0  0  0  0  0  0  0  0
   17.4762  -10.2516    0.0000 C    0  0  0  0  0  0  0  0  0  0  0  0
   18.4166  -12.5220    0.0000 C    0  0  0  0  0  0  0  0  0  0  0  0
   19.7466  -12.5220    0.0000 C    0  0  0  0  0  0  0  0  0  0  0  0
   18.4166   -9.3111    0.0000 C    0  0  0  0  0  0  0  0  0  0  0  0
   20.6871  -11.5816    0.0000 C    0  0  0  0  0  0  0  0  0  0  0  0
   19.7466   -9.3111    0.0000 C    0  0  0  0  0  0  0  0  0  0  0  0
   20.6871  -10.2516    0.0000 C    0  0  0  0  0  0  0  0  0  0  0  0
   16.2474   -9.7426    0.0000 Rh   0  0  0  0  0  0  0  0  0  0  0  0
   16.7564   -8.5138    0.0000 C    0  0  0  0  0  0  0  0  0  0  0  0
   15.7384  -10.9714    0.0000 P    0  0  0  0  0  0  0  0  0  0  0  0
   15.0186   -9.2336    0.0000 P    0  0  0  0  0  0  0  0  0  0  0  0
   14.5097  -10.4624    0.0000 C    0  0  0  0  0  0  0  0  0  0  0  0
   16.9672  -11.4803    0.0000 C    0  0  0  0  0  0  0  0  0  0  0  0
   15.5276   -8.0049    0.0000 C    0  0  0  0  0  0  0  0  0  0  0  0
   14.0007  -11.6911    0.0000 C    0  0  0  0  0  0  0  0  0  0  0  0
   15.2295  -12.2001    0.0000 C    0  0  0  0  0  0  0  0  0  0  0  0
   13.7899   -8.7247    0.0000 C    0  0  0  0  0  0  0  0  0  0  0  0
  1  2  1  0  0  0  0
  1  3  1  0  0  0  0
  2  5  1  0  0  0  0
  3  4  2  0  0  0  0
  4  6  1  0  0  0  0
  5  7  2  0  0  0  0
  6  8  1  0  0  0  0
  7  8  1  0  0  0  0
  9 10  1  0  0  0  0
  2  9  1  0  0  0  0
  9 11  1  0  0  0  0
  9 12  1  0  0  0  0
 11 13  1  0  0  0  0
 11 14  1  0  0  0  0
 12 15  1  0  0  0  0
 12 16  1  0  0  0  0
 11 17  1  0  0  0  0
 12 18  1  0  0  0  0
M  END
> <NMREDATA_VERSION>
1.1

> <NMREDATA_LEVEL>
0

> <NMREDATA_SOLVENT>
toluene-d8

> <NMREDATA_TEMPERATURE>
253

> <NMREDATA_FORMULA>
C15H34P2Rh

> <NMREDATA_SMILES>
C[Rh](P(C)(C)C)(P(C)(C)C)C1C=CCCC=CC1

> <NMREDATA_ASSIGNMENT>
Rh9, -332.00, 9

> <NMREDATA_1D_103Rh>
-332.00, L=Rh9

$$$$
