
  ACD/LABS02122413522D

 48 53  0  0  0  0  0  0  0  0  2 V2000
   19.9437   -7.5883    0.0000 C    0  0  0  0  0  0  0  0  0  0  0  0
   21.2737   -7.5883    0.0000 C    0  0  0  0  0  0  0  0  0  0  0  0
   19.2787   -8.7402    0.0000 C    0  0  0  0  0  0  0  0  0  0  0  0
   21.9387   -8.7402    0.0000 C    0  0  0  0  0  0  0  0  0  0  0  0
   19.9437   -9.8920    0.0000 C    0  0  0  0  0  0  0  0  0  0  0  0
   21.2737   -9.8920    0.0000 C    0  0  0  0  0  0  0  0  0  0  0  0
   22.7342  -13.0388    0.0000 C    0  0  0  0  0  0  0  0  0  0  0  0
   21.5823  -13.7038    0.0000 C    0  0  0  0  0  0  0  0  0  0  0  0
   22.7342  -11.7088    0.0000 C    0  0  0  0  0  0  0  0  0  0  0  0
   20.4305  -13.0388    0.0000 C    0  0  0  0  0  0  0  0  0  0  0  0
   21.5823  -11.0438    0.0000 C    0  0  0  0  0  0  0  0  0  0  0  0
   20.4305  -11.7088    0.0000 C    0  0  0  0  0  0  0  0  0  0  0  0
   19.2787  -11.0438    0.0000 P    0  0  0  0  0  0  0  0  0  0  0  0
   18.1269  -10.3788    0.0000 N    0  0  0  0  0  0  0  0  0  0  0  0
   18.1269   -9.0488    0.0000 C    0  0  0  0  0  0  0  0  0  0  0  0
   16.9751   -8.3838    0.0000 C    0  0  0  0  0  0  0  0  0  0  0  0
   19.2787   -8.3838    0.0000 C    0  0  0  0  0  0  0  0  0  0  0  0
   16.9751   -7.0538    0.0000 C    0  0  0  0  0  0  0  0  0  0  0  0
   19.2787   -7.0538    0.0000 C    0  0  0  0  0  0  0  0  0  0  0  0
   18.1269   -6.3888    0.0000 C    0  0  0  0  0  0  0  0  0  0  0  0
   18.1269   -5.0588    0.0000 C    0  0  0  0  0  0  0  0  0  0  0  0
   13.2937  -14.4992    0.0000 C    0  0  0  0  0  0  0  0  0  0  0  0
   12.6287  -13.3474    0.0000 C    0  0  0  0  0  0  0  0  0  0  0  0
   14.6237  -14.4992    0.0000 C    0  0  0  0  0  0  0  0  0  0  0  0
   13.2937  -12.1956    0.0000 C    0  0  0  0  0  0  0  0  0  0  0  0
   15.2887  -13.3474    0.0000 C    0  0  0  0  0  0  0  0  0  0  0  0
   14.6237  -12.1956    0.0000 C    0  0  0  0  0  0  0  0  0  0  0  0
   16.6187  -17.3374    0.0000 C    0  0  0  0  0  0  0  0  0  0  0  0
   15.4669  -16.6724    0.0000 C    0  0  0  0  0  0  0  0  0  0  0  0
   17.7705  -16.6724    0.0000 C    0  0  0  0  0  0  0  0  0  0  0  0
   15.4669  -15.3424    0.0000 C    0  0  0  0  0  0  0  0  0  0  0  0
   17.7705  -15.3424    0.0000 C    0  0  0  0  0  0  0  0  0  0  0  0
   16.6187  -14.6774    0.0000 C    0  0  0  0  0  0  0  0  0  0  0  0
   18.6137  -12.1956    0.0000 Rh   0  3  0  0  0  0  0  0  0  0  0  0
   17.9487  -13.3474    0.0000 C    0  0  0  0  0  0  0  0  0  0  0  0
   16.6187  -13.3474    0.0000 P    0  0  0  0  0  0  0  0  0  0  0  0
   16.6187  -12.0174    0.0000 N    0  0  0  0  0  0  0  0  0  0  0  0
   15.4669  -11.3524    0.0000 C    0  0  0  0  0  0  0  0  0  0  0  0
   14.3151  -12.0174    0.0000 C    0  0  0  0  0  0  0  0  0  0  0  0
   15.4669  -10.0224    0.0000 C    0  0  0  0  0  0  0  0  0  0  0  0
   13.1633  -11.3524    0.0000 C    0  0  0  0  0  0  0  0  0  0  0  0
   14.3151   -9.3574    0.0000 C    0  0  0  0  0  0  0  0  0  0  0  0
   13.1633  -10.0224    0.0000 C    0  0  0  0  0  0  0  0  0  0  0  0
   12.0115   -9.3574    0.0000 C    0  0  0  0  0  0  0  0  0  0  0  0
   17.4619  -11.5306    0.0000 C    0  0  0  0  0  0  0  0  0  0  0  0
   19.7655  -12.8606    0.0000 C    0  0  0  0  0  0  0  0  0  0  0  0
   16.3101  -10.8656    0.0000 O    0  0  0  0  0  0  0  0  0  0  0  0
   20.9173  -13.5256    0.0000 O    0  0  0  0  0  0  0  0  0  0  0  0
  1  2  1  0  0  0  0
  1  3  2  0  0  0  0
  2  4  2  0  0  0  0
  3  5  1  0  0  0  0
  4  6  1  0  0  0  0
  5  6  2  0  0  0  0
  7  8  1  0  0  0  0
  7  9  2  0  0  0  0
  8 10  2  0  0  0  0
  9 11  1  0  0  0  0
 10 12  1  0  0  0  0
 11 12  2  0  0  0  0
 13 14  2  0  0  0  0
 12 13  1  0  0  0  0
  5 13  1  0  0  0  0
 15 16  1  0  0  0  0
 15 17  2  0  0  0  0
 16 18  2  0  0  0  0
 17 19  1  0  0  0  0
 18 20  1  0  0  0  0
 19 20  2  0  0  0  0
 14 15  1  0  0  0  0
 20 21  1  0  0  0  0
 22 23  1  0  0  0  0
 22 24  2  0  0  0  0
 23 25  2  0  0  0  0
 24 26  1  0  0  0  0
 25 27  1  0  0  0  0
 26 27  2  0  0  0  0
 28 29  1  0  0  0  0
 28 30  2  0  0  0  0
 29 31  2  0  0  0  0
 30 32  1  0  0  0  0
 31 33  1  0  0  0  0
 32 33  2  0  0  0  0
 34 35  1  0  0  0  0
 35 36  1  0  0  0  0
 36 37  2  0  0  0  0
 33 36  1  0  0  0  0
 26 36  1  0  0  0  0
 38 39  1  0  0  0  0
 38 40  2  0  0  0  0
 39 41  2  0  0  0  0
 40 42  1  0  0  0  0
 41 43  1  0  0  0  0
 42 43  2  0  0  0  0
 37 38  1  0  0  0  0
 43 44  1  0  0  0  0
 34 45  1  0  0  0  0
 34 46  1  0  0  0  0
 45 47  3  0  0  0  0
 46 48  3  0  0  0  0
 13 34  1  0  0  0  0
M  END
> <NMREDATA_VERSION>
1.1

> <NMREDATA_LEVEL>
0

> <NMREDATA_SOLVENT>
C6D6

> <NMREDATA_TEMPERATURE>
298

> <NMREDATA_FORMULA>
C41H36N2O2P2Rh

> <NMREDATA_SMILES>
[O]#C[Rh](P(=Nc1ccc(cc1)C)(c1ccccc1)c1ccccc1)(CP(=Nc1ccc(cc1)C)(c1ccccc1)c1ccccc1)C#[O]

> <NMREDATA_ASSIGNMENT>
Rh34, 11.00, 34

> <NMREDATA_1D_103Rh>
11.00, L=Rh34

$$$$
