
  ACD/LABS03212412312D

 44 48  0  0  0  0  0  0  0  0  1 V2000
    9.7813   -6.8080    0.0000 P    0  0  0  0  0  0  0  0  0  0  0  0
    8.6285  -10.1233    0.0000 C    0  0  0  0  0  0  0  0  0  0  0  0
    8.6285   -8.7937    0.0000 C    0  0  0  0  0  0  0  0  0  0  0  0
    9.7813  -10.7881    0.0000 C    0  0  0  0  0  0  0  0  0  0  0  0
    9.7813   -8.1289    0.0000 C    0  0  0  0  0  0  0  0  0  0  0  0
   10.9336  -10.1233    0.0000 C    0  0  0  0  0  0  0  0  0  0  0  0
   10.9336   -8.7937    0.0000 C    0  0  0  0  0  0  0  0  0  0  0  0
    8.6285   -4.8136    0.0000 C    0  0  0  0  0  0  0  0  0  0  0  0
    8.6285   -3.4836    0.0000 C    0  0  0  0  0  0  0  0  0  0  0  0
    9.7813   -5.4784    0.0000 C    0  0  0  0  0  0  0  0  0  0  0  0
    9.7813   -2.8188    0.0000 C    0  0  0  0  0  0  0  0  0  0  0  0
   10.9336   -4.8136    0.0000 C    0  0  0  0  0  0  0  0  0  0  0  0
   10.9336   -3.4836    0.0000 C    0  0  0  0  0  0  0  0  0  0  0  0
    8.4513   -6.8080    0.0000 C    0  0  0  0  0  0  0  0  0  0  0  0
    7.7865   -5.6557    0.0000 C    0  0  0  0  0  0  0  0  0  0  0  0
    6.4568   -5.6557    0.0000 O    0  0  0  0  0  0  0  0  0  0  0  0
    5.7917   -4.5033    0.0000 C    0  0  0  0  0  0  0  0  0  0  0  0
   12.6708   -6.7993    0.0000 Rh   0  0  0  0  0  0  0  0  0  0  0  0
   12.6708   -5.4696    0.0000 Cl   0  0  0  0  0  0  0  0  0  0  0  0
   14.0004   -6.7993    0.0000 P    0  0  0  0  0  0  0  0  0  0  0  0
   17.3248   -7.9516    0.0000 C    0  0  0  0  0  0  0  0  0  0  0  0
   15.9952   -7.9516    0.0000 C    0  0  0  0  0  0  0  0  0  0  0  0
   17.9900   -6.7993    0.0000 C    0  0  0  0  0  0  0  0  0  0  0  0
   15.3304   -6.7993    0.0000 C    0  0  0  0  0  0  0  0  0  0  0  0
   17.3248   -5.6557    0.0000 C    0  0  0  0  0  0  0  0  0  0  0  0
   15.9952   -5.6557    0.0000 C    0  0  0  0  0  0  0  0  0  0  0  0
   15.4810   -5.0351    0.0000 C    0  0  0  0  0  0  0  0  0  0  0  0
   15.7024   -3.7230    0.0000 C    0  0  0  0  0  0  0  0  0  0  0  0
   14.2310   -5.4963    0.0000 C    0  0  0  0  0  0  0  0  0  0  0  0
   14.6831   -2.8721    0.0000 C    0  0  0  0  0  0  0  0  0  0  0  0
   13.2117   -4.6451    0.0000 C    0  0  0  0  0  0  0  0  0  0  0  0
   13.4419   -3.3330    0.0000 C    0  0  0  0  0  0  0  0  0  0  0  0
   14.0004   -8.1289    0.0000 C    0  0  0  0  0  0  0  0  0  0  0  0
   15.1531   -8.7845    0.0000 C    0  0  0  0  0  0  0  0  0  0  0  0
   15.1531  -10.1145    0.0000 O    0  0  0  0  0  0  0  0  0  0  0  0
   16.3055  -10.7793    0.0000 C    0  0  0  0  0  0  0  0  0  0  0  0
   12.6708   -8.1289    0.0000 C    0  0  0  0  0  0  0  0  0  0  0  0
   12.6708   -9.4497    0.0000 C    0  0  0  0  0  0  0  0  0  0  0  0
   12.6708  -10.7793    0.0000 C    0  0  0  0  0  0  0  0  0  0  0  0
   13.8231  -11.4442    0.0000 C    0  0  0  0  0  0  0  0  0  0  0  0
   11.5275  -11.4442    0.0000 C    0  0  0  0  0  0  0  0  0  0  0  0
   13.8231  -12.7742    0.0000 C    0  0  0  0  0  0  0  0  0  0  0  0
   11.5275  -12.7742    0.0000 C    0  0  0  0  0  0  0  0  0  0  0  0
   12.6708  -13.4390    0.0000 C    0  0  0  0  0  0  0  0  0  0  0  0
  2  3  1  0  0  0  0
  2  4  1  0  0  0  0
  3  5  1  0  0  0  0
  4  6  1  0  0  0  0
  5  7  1  0  0  0  0
  6  7  1  0  0  0  0
  1  5  1  0  0  0  0
  8  9  1  0  0  0  0
  8 10  1  0  0  0  0
  9 11  1  0  0  0  0
 10 12  1  0  0  0  0
 11 13  1  0  0  0  0
 12 13  1  0  0  0  0
  1 10  1  0  0  0  0
  1 14  1  0  0  0  0
 14 15  1  0  0  0  0
 15 16  1  0  0  0  0
 16 17  1  0  0  0  0
 18 19  1  0  0  0  0
 18 20  1  0  0  0  0
 21 22  1  0  0  0  0
 21 23  1  0  0  0  0
 22 24  1  0  0  0  0
 23 25  1  0  0  0  0
 24 26  1  0  0  0  0
 25 26  1  0  0  0  0
 20 24  1  0  0  0  0
 27 28  1  0  0  0  0
 27 29  1  0  0  0  0
 28 30  1  0  0  0  0
 29 31  1  0  0  0  0
 30 32  1  0  0  0  0
 31 32  1  0  0  0  0
 20 29  1  0  0  0  0
 20 33  1  0  0  0  0
 33 34  1  0  0  0  0
 34 35  1  0  0  0  0
 35 36  1  0  0  0  0
  1 18  1  0  0  0  0
 18 37  1  0  0  0  0
 37 38  3  0  0  0  0
 39 40  1  0  0  0  0
 39 41  2  0  0  0  0
 40 42  2  0  0  0  0
 41 43  1  0  0  0  0
 42 44  1  0  0  0  0
 43 44  2  0  0  0  0
 38 39  1  0  0  0  0
M  END
> <NMREDATA_VERSION>
1.1

> <NMREDATA_LEVEL>
0

> <NMREDATA_SOLVENT>
C6D6

> <NMREDATA_TEMPERATURE>
295

> <NMREDATA_FORMULA>
C38H65ClO2P2Rh

> <NMREDATA_SMILES>
COCCP([Rh](P(C1CCCCC1)(C1CCCCC1)CCOC)(C#Cc1ccccc1)Cl)(C1CCCCC1)C1CCCCC1

> <NMREDATA_ASSIGNMENT>
Rh18, 1120.00, 18

> <NMREDATA_1D_103Rh>
1120.00, L=Rh18

$$$$
