LaurenceCarlton-2008_00049.mol
  ChemDraw08192413122D

 57 68  0  0  1  0  0  0  0  0999 V2000
   -2.9776    2.5563    0.0000 C    0  0  0  0  0  0  0  0  0  0  0  0
   -2.1846    2.7764    0.0000 C    0  0  0  0  0  0  0  0  0  0  0  0
   -3.3035    1.7980    0.0000 C    0  0  0  0  0  0  0  0  0  0  0  0
   -1.5160    2.2945    0.0000 C    0  0  0  0  0  0  0  0  0  0  0  0
   -2.9147    1.0730    0.0000 C    0  0  0  0  0  0  0  0  0  0  0  0
   -2.0990    0.9263    0.0000 C    0  0  0  0  0  0  0  0  0  0  0  0
   -1.4778    1.4705    0.0000 C    0  0  0  0  0  0  0  0  0  0  0  0
   -1.9429    0.1161    0.0000 C    0  0  0  0  0  0  0  0  0  0  0  0
   -1.1585   -0.1533    0.0000 C    0  0  0  0  0  0  0  0  0  0  0  0
   -0.6986    1.1990    0.0000 C    0  0  0  0  0  0  0  0  0  0  0  0
   -0.5372    0.3907    0.0000 C    0  0  0  0  0  0  0  0  0  0  0  0
   -3.5689    3.1308    0.0000 C    0  0  0  0  0  0  0  0  0  0  0  0
   -3.3574    3.9291    0.0000 C    0  0  0  0  0  0  0  0  0  0  0  0
   -1.9783    3.5726    0.0000 C    0  0  0  0  0  0  0  0  0  0  0  0
   -2.5646    4.1491    0.0000 C    0  0  0  0  0  0  0  0  0  0  0  0
   -0.7636    2.6330    0.0000 N    0  0  0  0  0  0  0  0  0  0  0  0
    2.9991    2.5466    0.0000 C    0  0  0  0  0  0  0  0  0  0  0  0
    2.1976    2.7419    0.0000 C    0  0  0  0  0  0  0  0  0  0  0  0
    3.3455    1.7950    0.0000 C    0  0  0  0  0  0  0  0  0  0  0  0
    2.9747    1.0573    0.0000 C    0  0  0  0  0  0  0  0  0  0  0  0
    1.5409    2.2398    0.0000 C    0  0  0  0  0  0  0  0  0  0  0  0
    1.5290    1.4159    0.0000 C    0  0  0  0  0  0  0  0  0  0  0  0
    2.1633    0.8893    0.0000 C    0  0  0  0  0  0  0  0  0  0  0  0
    0.7605    1.1336    0.0000 C    0  0  0  0  0  0  0  0  0  0  0  0
    0.6203    0.3155    0.0000 C    0  0  0  0  0  0  0  0  0  0  0  0
    2.0292    0.0804    0.0000 C    0  0  0  0  0  0  0  0  0  0  0  0
    1.2578   -0.2065    0.0000 C    0  0  0  0  0  0  0  0  0  0  0  0
    0.8040    2.6107    0.0000 N    0  0  0  0  0  0  0  0  0  0  0  0
   -0.0107    0.6305    0.0000 Rh   0  3  0  0  0  0  0  0  0  0  0  0
    0.4049    3.3327    0.0000 C    0  0  0  0  0  0  0  0  0  0  0  0
   -0.3518    3.2879    0.0000 C    0  0  0  0  0  0  0  0  0  0  0  0
   -1.4329    3.1153    0.0000 H    0  0  0  0  0  0  0  0  0  0  0  0
    1.4936    3.0635    0.0000 H    0  0  0  0  0  0  0  0  0  0  0  0
   -0.7720    3.9979    0.0000 C    0  0  0  0  0  0  0  0  0  0  0  0
    0.8029    4.0554    0.0000 C    0  0  0  0  0  0  0  0  0  0  0  0
    0.3760    4.7613    0.0000 C    0  0  0  0  0  0  0  0  0  0  0  0
    0.7739    5.4840    0.0000 C    0  0  0  0  0  0  0  0  0  0  0  0
    1.5987    5.5007    0.0000 C    0  0  0  0  0  0  0  0  0  0  0  0
    2.0256    4.7947    0.0000 C    0  0  0  0  0  0  0  0  0  0  0  0
    1.6276    4.0721    0.0000 C    0  0  0  0  0  0  0  0  0  0  0  0
   -1.5969    3.9891    0.0000 C    0  0  0  0  0  0  0  0  0  0  0  0
   -2.0171    4.6990    0.0000 C    0  0  0  0  0  0  0  0  0  0  0  0
   -1.6123    5.4179    0.0000 C    0  0  0  0  0  0  0  0  0  0  0  0
   -0.7873    5.4267    0.0000 C    0  0  0  0  0  0  0  0  0  0  0  0
   -0.3672    4.7168    0.0000 C    0  0  0  0  0  0  0  0  0  0  0  0
    3.5689    3.1432    0.0000 C    0  0  0  0  0  0  0  0  0  0  0  0
    3.3372    3.9350    0.0000 C    0  0  0  0  0  0  0  0  0  0  0  0
    2.5356    4.1301    0.0000 C    0  0  0  0  0  0  0  0  0  0  0  0
    1.9658    3.5336    0.0000 C    0  0  0  0  0  0  0  0  0  0  0  0
   -0.3726   -3.9561    0.0000 S    0  0  0  0  0  0  0  0  0  0  0  0
    0.2452   -2.7603    0.0000 O    0  0  0  0  0  0  0  0  0  0  0  0
   -1.0203   -3.0095    0.0000 O    0  0  0  0  0  0  0  0  0  0  0  0
    0.8731   -4.6338    0.0000 O    0  5  0  0  0  0  0  0  0  0  0  0
   -1.1200   -4.7035    0.0000 C    0  0  0  0  0  0  0  0  0  0  0  0
   -2.1662   -4.1554    0.0000 F    0  0  0  0  0  0  0  0  0  0  0  0
   -1.6182   -5.2316    0.0000 F    0  0  0  0  0  0  0  0  0  0  0  0
   -0.0537   -5.5007    0.0000 F    0  0  0  0  0  0  0  0  0  0  0  0
  1  3  1  0  0
  2  4  1  0  0
  3  5  1  0  0
  4  7  1  0  0
  5  6  1  0  0
  6  8  1  0  0
  6  7  2  0  0
  8  9  2  0  0
  7 10  1  0  0
  9 11  1  0  0
 10 11  2  0  0
  1 12  1  0  0
  1  2  2  0  0
 12 13  2  0  0
  2 14  1  0  0
 13 15  1  0  0
 14 15  2  0  0
 17 19  1  0  0
 17 18  2  0  0
 19 20  1  0  0
 18 21  1  0  0
 20 23  1  0  0
 21 22  1  0  0
 22 24  1  0  0
 22 23  2  0  0
 24 25  1  0  0
 23 26  1  0  0
 25 27  1  0  0
 26 27  2  0  0
 21 28  1  0  0
 28 29  1  0  0
 16 29  1  0  0
 30 28  1  6  0
 30 31  1  0  0
 31 16  1  1  0
 16 32  1  0  0
 28 33  1  0  0
 34 31  1  0  0
 35 30  1  0  0
 35 36  2  0  0
 36 37  1  0  0
 37 38  2  0  0
 38 39  1  0  0
 39 40  2  0  0
 40 35  1  0  0
 34 41  2  0  0
 41 42  1  0  0
 42 43  2  0  0
 43 44  1  0  0
 44 45  2  0  0
 45 34  1  0  0
 17 46  1  0  0
 46 47  2  0  0
 47 48  1  0  0
 48 49  2  0  0
 49 18  1  0  0
 16  4  1  0  0
  3 29  1  0  0
  5 29  1  0  0
 19 29  1  0  0
 29 20  1  0  0
 50 51  2  0  0
 50 52  2  0  0
 50 53  1  0  0
 50 54  1  0  0
 54 55  1  0  0
 54 56  1  0  0
 54 57  1  0  0
M  END
> <NMREDATA_VERSION>
1.1

> <NMREDATA_LEVEL>
0

> <NMREDATA_SOLVENT>
CD3CN

> <NMREDATA_FORMULA>
C45H41F3N2O3RhS

> <NMREDATA_SMILES>
c1ccc(cc1)[C@H]1[C@H](c2ccccc2)[NH2]2[Rh]345([NH2]1C1c6ccccc6C3C4C3=C1CCC=C3)C1C5c3c(C2c2c1cccc2)cccc3.FC(S(=O)(=O)O)(F)F

> <NMREDATA_ASSIGNMENT>
Rh29, 917.00, 29

> <NMREDATA_1D_103Rh>
917.00, L=Rh29

$$$$
