
  ACD/LABS03122417252D

 22 22  0  0  0  0  0  0  0  0  2 V2000
   10.7877  -13.1139    0.0000 Rh   0  3  0  0  0  0  0  0  0  0  0  0
    8.8866  -12.0163    0.0000 C    0  0  0  0  0  0  0  0  0  0  0  0
   11.8854  -11.2128    0.0000 C    0  0  0  0  0  0  0  0  0  0  0  0
   12.9830   -9.3116    0.0000 O    0  0  0  0  0  0  0  0  0  0  0  0
    6.9854  -10.9186    0.0000 O    0  0  0  0  0  0  0  0  0  0  0  0
    9.6901  -15.0151    0.0000 N    0  0  0  0  0  0  0  0  0  0  0  0
   10.7877  -16.9163    0.0000 C    0  0  0  0  0  0  0  0  0  0  0  0
    7.4948  -15.0151    0.0000 C    0  0  0  0  0  0  0  0  0  0  0  0
    9.6901  -18.8175    0.0000 C    0  0  0  0  0  0  0  0  0  0  0  0
    6.3971  -16.9163    0.0000 C    0  0  0  0  0  0  0  0  0  0  0  0
    7.4948  -18.8175    0.0000 C    0  0  0  0  0  0  0  0  0  0  0  0
   12.6889  -14.2116    0.0000 N    0  0  0  0  0  0  0  0  0  0  0  0
   14.5901  -13.1139    0.0000 C    0  0  0  0  0  0  0  0  0  0  0  0
   12.6889  -16.4069    0.0000 C    0  0  0  0  0  0  0  0  0  0  0  0
   16.4913  -14.2116    0.0000 C    0  0  0  0  0  0  0  0  0  0  0  0
   14.5901  -17.5045    0.0000 C    0  0  0  0  0  0  0  0  0  0  0  0
   16.4913  -16.4069    0.0000 C    0  0  0  0  0  0  0  0  0  0  0  0
   23.0186  -10.6721    0.0000 Cl   0  0  0  0  0  0  0  0  0  0  0  0
   21.2840   -9.6705    0.0000 O    0  0  0  0  0  0  0  0  0  0  0  0
   24.0201   -8.9374    0.0000 O    0  0  0  0  0  0  0  0  0  0  0  0
   22.0171  -12.4067    0.0000 O    0  0  0  0  0  0  0  0  0  0  0  0
   24.7533  -11.6736    0.0000 O    0  5  0  0  0  0  0  0  0  0  0  0
  1  2  1  0  0  0  0
  1  3  1  0  0  0  0
  3  4  3  0  0  0  0
  2  5  3  0  0  0  0
  6  7  1  0  0  0  0
  6  8  2  0  0  0  0
  7  9  2  0  0  0  0
  8 10  1  0  0  0  0
  9 11  1  0  0  0  0
 10 11  2  0  0  0  0
  1  6  1  0  0  0  0
 12 13  1  0  0  0  0
 12 14  2  0  0  0  0
 13 15  2  0  0  0  0
 14 16  1  0  0  0  0
 15 17  1  0  0  0  0
 16 17  2  0  0  0  0
  1 12  1  0  0  0  0
 18 19  2  0  0  0  0
 18 20  2  0  0  0  0
 18 21  2  0  0  0  0
 18 22  1  0  0  0  0
M  END
> <NMREDATA_VERSION>
1.1

> <NMREDATA_LEVEL>
0

> <NMREDATA_SOLVENT>
CD2Cl2

> <NMREDATA_TEMPERATURE>
223

> <NMREDATA_FORMULA>
C12H13ClN2O6Rh

> <NMREDATA_SMILES>
O[Cl](=O)(=O)=O.[O]#C[Rh](N1=CC=CC=C1)(N1=CC=CC=C1)C#[O]

> <NMREDATA_ASSIGNMENT>
Rh1, 73.00, 1

> <NMREDATA_1D_103Rh>
73.00, L=Rh1

$$$$
