
  ACD/LABS03262412072D

 38 40  0  0  0  0  0  0  0  0  1 V2000
    9.3439  -14.4111    0.0000 O    0  0  0  0  0  0  0  0  0  0  0  0
    9.5716  -13.1020    0.0000 N    0  0  0  0  0  0  0  0  0  0  0  0
   10.8239  -12.6450    0.0000 C    0  0  0  0  0  0  0  0  0  0  0  0
   11.8412  -13.5023    0.0000 C    0  0  0  0  0  0  0  0  0  0  0  0
   11.0557  -11.3438    0.0000 C    0  0  0  0  0  0  0  0  0  0  0  0
   10.0309  -10.4913    0.0000 C    0  0  0  0  0  0  0  0  0  0  0  0
   12.3082  -10.8872    0.0000 N    0  0  0  0  0  0  0  0  0  0  0  0
   12.5313   -9.5701    0.0000 O    0  0  0  0  0  0  0  0  0  0  0  0
   18.2333  -14.3904    0.0000 O    0  0  0  0  0  0  0  0  0  0  0  0
   16.9825  -13.9451    0.0000 N    0  0  0  0  0  0  0  0  0  0  0  0
   16.7488  -12.6355    0.0000 C    0  0  0  0  0  0  0  0  0  0  0  0
   17.7585  -11.7762    0.0000 C    0  0  0  0  0  0  0  0  0  0  0  0
   15.4937  -12.1820    0.0000 C    0  0  0  0  0  0  0  0  0  0  0  0
   14.4844  -13.0415    0.0000 C    0  0  0  0  0  0  0  0  0  0  0  0
   15.2601  -10.8727    0.0000 N    0  0  0  0  0  0  0  0  0  0  0  0
   14.0047  -10.4194    0.0000 O    0  0  0  0  0  0  0  0  0  0  0  0
   13.7756   -9.1178    0.0000 Rh   0  0  0  0  0  0  0  0  0  0  0  0
   15.0849   -8.8842    0.0000 C    0  0  0  0  0  0  0  0  0  0  0  0
   15.9367   -9.8979    0.0000 C    0  0  0  0  0  0  0  0  0  0  0  0
   13.5421   -7.8084    0.0000 P    0  0  0  0  0  0  0  0  0  0  0  0
   11.5789   -9.1977    0.0000 C    0  0  0  0  0  0  0  0  0  0  0  0
   12.2247   -8.0466    0.0000 C    0  0  0  0  0  0  0  0  0  0  0  0
   10.2519   -9.2060    0.0000 C    0  0  0  0  0  0  0  0  0  0  0  0
   11.5594   -6.8942    0.0000 C    0  0  0  0  0  0  0  0  0  0  0  0
    9.5789   -8.0580    0.0000 C    0  0  0  0  0  0  0  0  0  0  0  0
   10.2329   -6.9018    0.0000 C    0  0  0  0  0  0  0  0  0  0  0  0
   11.8117   -4.7406    0.0000 C    0  0  0  0  0  0  0  0  0  0  0  0
   12.0531   -6.0458    0.0000 C    0  0  0  0  0  0  0  0  0  0  0  0
   12.8336   -3.8845    0.0000 C    0  0  0  0  0  0  0  0  0  0  0  0
   13.3007   -6.5032    0.0000 C    0  0  0  0  0  0  0  0  0  0  0  0
   14.0844   -4.3298    0.0000 C    0  0  0  0  0  0  0  0  0  0  0  0
   14.3181   -5.6395    0.0000 C    0  0  0  0  0  0  0  0  0  0  0  0
   17.3441   -6.6581    0.0000 C    0  0  0  0  0  0  0  0  0  0  0  0
   16.3314   -5.8089    0.0000 C    0  0  0  0  0  0  0  0  0  0  0  0
   17.1210   -7.9752    0.0000 C    0  0  0  0  0  0  0  0  0  0  0  0
   15.0789   -6.2655    0.0000 C    0  0  0  0  0  0  0  0  0  0  0  0
   15.8685   -8.4318    0.0000 C    0  0  0  0  0  0  0  0  0  0  0  0
   14.8514   -7.5749    0.0000 C    0  0  0  0  0  0  0  0  0  0  0  0
  1  2  1  0  0  0  0
  2  3  2  0  0  0  0
  3  4  1  0  0  0  0
  3  5  1  0  0  0  0
  5  6  1  0  0  0  0
  5  7  2  0  0  0  0
  7  8  1  0  0  0  0
  9 10  1  0  0  0  0
 10 11  2  0  0  0  0
 11 12  1  0  0  0  0
 11 13  1  0  0  0  0
 13 14  1  0  0  0  0
 13 15  2  0  0  0  0
 15 16  1  0  0  0  0
 16 17  1  0  0  0  0
  8 17  1  0  0  0  0
 17 18  1  0  0  0  0
 18 19  2  0  0  0  0
 17 20  1  0  0  0  0
 21 22  1  0  0  0  0
 21 23  2  0  0  0  0
 22 24  2  0  0  0  0
 23 25  1  0  0  0  0
 24 26  1  0  0  0  0
 25 26  2  0  0  0  0
 20 22  1  0  0  0  0
 27 28  1  0  0  0  0
 27 29  2  0  0  0  0
 28 30  2  0  0  0  0
 29 31  1  0  0  0  0
 30 32  1  0  0  0  0
 31 32  2  0  0  0  0
 20 30  1  0  0  0  0
 33 34  1  0  0  0  0
 33 35  2  0  0  0  0
 34 36  2  0  0  0  0
 35 37  1  0  0  0  0
 36 38  1  0  0  0  0
 37 38  2  0  0  0  0
 20 38  1  0  0  0  0
M  END
> <NMREDATA_VERSION>
1.1

> <NMREDATA_LEVEL>
0

> <NMREDATA_SOLVENT>
DCCl3

> <NMREDATA_TEMPERATURE>
298

> <NMREDATA_FORMULA>
C28H33N4O4PRh

> <NMREDATA_SMILES>
C=C[Rh](P(c1ccccc1)(c1ccccc1)c1ccccc1)(O/N=C(/C(=N/O)/C)\C)O/N=C(/C(=N/O)/C)\C

> <NMREDATA_ASSIGNMENT>
Rh17, 2145.00, 17

> <NMREDATA_1D_103Rh>
2145.00, L=Rh17

$$$$
