
  ACD/LABS03142420052D

 39 42  0  0  0  0  0  0  0  0  1 V2000
   10.8332   -9.1061    0.0000 P    0  0  0  0  0  0  0  0  0  0  0  0
   10.1682   -7.9542    0.0000 C    0  0  0  0  0  0  0  0  0  0  0  0
    8.8382   -7.9542    0.0000 C    0  0  0  0  0  0  0  0  0  0  0  0
   10.8332   -6.8024    0.0000 C    0  0  0  0  0  0  0  0  0  0  0  0
    8.1732   -6.8024    0.0000 C    0  0  0  0  0  0  0  0  0  0  0  0
   10.1682   -5.6506    0.0000 C    0  0  0  0  0  0  0  0  0  0  0  0
    8.8382   -5.6506    0.0000 C    0  0  0  0  0  0  0  0  0  0  0  0
    9.6814   -9.7711    0.0000 C    0  0  0  0  0  0  0  0  0  0  0  0
    9.6814  -11.1011    0.0000 C    0  0  0  0  0  0  0  0  0  0  0  0
    8.5296   -9.1061    0.0000 C    0  0  0  0  0  0  0  0  0  0  0  0
    8.5296  -11.7661    0.0000 C    0  0  0  0  0  0  0  0  0  0  0  0
    7.3778   -9.7711    0.0000 C    0  0  0  0  0  0  0  0  0  0  0  0
    7.3778  -11.1011    0.0000 C    0  0  0  0  0  0  0  0  0  0  0  0
   11.9850   -8.4411    0.0000 C    0  0  0  0  0  0  0  0  0  0  0  0
   11.9850   -7.1111    0.0000 C    0  0  0  0  0  0  0  0  0  0  0  0
   13.1368   -6.4461    0.0000 O    0  0  0  0  0  0  0  0  0  0  0  0
   13.1368   -5.1161    0.0000 C    0  0  0  0  0  0  0  0  0  0  0  0
   12.1632  -11.4097    0.0000 P    0  0  0  0  0  0  0  0  0  0  0  0
   13.3150  -10.7447    0.0000 C    0  0  0  0  0  0  0  0  0  0  0  0
   13.3150   -9.4147    0.0000 C    0  0  0  0  0  0  0  0  0  0  0  0
   14.4668  -11.4097    0.0000 C    0  0  0  0  0  0  0  0  0  0  0  0
   14.4668   -8.7497    0.0000 C    0  0  0  0  0  0  0  0  0  0  0  0
   15.6186  -10.7447    0.0000 C    0  0  0  0  0  0  0  0  0  0  0  0
   15.6186   -9.4147    0.0000 C    0  0  0  0  0  0  0  0  0  0  0  0
   11.0114  -12.0747    0.0000 C    0  0  0  0  0  0  0  0  0  0  0  0
   11.0114  -13.4047    0.0000 C    0  0  0  0  0  0  0  0  0  0  0  0
    9.8596  -11.4097    0.0000 C    0  0  0  0  0  0  0  0  0  0  0  0
    9.8596  -14.0697    0.0000 C    0  0  0  0  0  0  0  0  0  0  0  0
    8.7078  -12.0747    0.0000 C    0  0  0  0  0  0  0  0  0  0  0  0
    8.7078  -13.4047    0.0000 C    0  0  0  0  0  0  0  0  0  0  0  0
   12.8282  -12.5615    0.0000 C    0  0  0  0  0  0  0  0  0  0  0  0
   12.1632  -13.7133    0.0000 C    0  0  0  0  0  0  0  0  0  0  0  0
   12.8282  -14.8651    0.0000 O    0  0  0  0  0  0  0  0  0  0  0  0
   12.1632  -16.0169    0.0000 C    0  0  0  0  0  0  0  0  0  0  0  0
   11.4982  -10.2579    0.0000 Rh   0  0  0  0  0  0  0  0  0  0  0  0
   12.6500   -9.5929    0.0000 S    0  0  0  0  0  0  0  0  0  0  0  0
   12.6500   -8.2629    0.0000 O    0  0  0  0  0  0  0  0  0  0  0  0
   13.8018  -10.2579    0.0000 O    0  0  0  0  0  0  0  0  0  0  0  0
   10.3464  -10.9229    0.0000 Cl   0  0  0  0  0  0  0  0  0  0  0  0
  2  3  1  0  0  0  0
  2  4  1  0  0  0  0
  3  5  1  0  0  0  0
  4  6  1  0  0  0  0
  5  7  1  0  0  0  0
  6  7  1  0  0  0  0
  1  2  1  0  0  0  0
  8  9  1  0  0  0  0
  8 10  1  0  0  0  0
  9 11  1  0  0  0  0
 10 12  1  0  0  0  0
 11 13  1  0  0  0  0
 12 13  1  0  0  0  0
  1  8  1  0  0  0  0
  1 14  1  0  0  0  0
 14 15  1  0  0  0  0
 15 16  1  0  0  0  0
 16 17  1  0  0  0  0
 19 20  1  0  0  0  0
 19 21  1  0  0  0  0
 20 22  1  0  0  0  0
 21 23  1  0  0  0  0
 22 24  1  0  0  0  0
 23 24  1  0  0  0  0
 18 19  1  0  0  0  0
 25 26  1  0  0  0  0
 25 27  1  0  0  0  0
 26 28  1  0  0  0  0
 27 29  1  0  0  0  0
 28 30  1  0  0  0  0
 29 30  1  0  0  0  0
 18 25  1  0  0  0  0
 18 31  1  0  0  0  0
 31 32  1  0  0  0  0
 32 33  1  0  0  0  0
 33 34  1  0  0  0  0
 18 35  1  0  0  0  0
  1 35  1  0  0  0  0
 36 37  2  0  0  0  0
 36 38  2  0  0  0  0
 35 36  1  0  0  0  0
 35 39  1  0  0  0  0
M  END
> <NMREDATA_VERSION>
1.1

> <NMREDATA_LEVEL>
0

> <NMREDATA_SOLVENT>
CD2Cl2

> <NMREDATA_TEMPERATURE>
295

> <NMREDATA_FORMULA>
C30H61ClO4P2RhS

> <NMREDATA_SMILES>
COCCP([Rh](P(C1CCCCC1)(C1CCCCC1)CCOC)(S(=O)=O)Cl)(C1CCCCC1)C1CCCCC1

> <NMREDATA_ASSIGNMENT>
Rh35, 1650.00, 35

> <NMREDATA_1D_103Rh>
1650.00, L=Rh35

$$$$
