
  ACD/LABS02122411392D

 14 14  0  0  0  0  0  0  0  0  1 V2000
   22.2400   -5.7254    0.0000 C    0  0  0  0  0  0  0  0  0  0  0  0
   20.9218   -5.9037    0.0000 C    0  0  0  0  0  0  0  0  0  0  0  0
   23.2923   -6.5389    0.0000 C    0  0  0  0  0  0  0  0  0  0  0  0
   23.4662   -7.8494    0.0000 C    0  0  0  0  0  0  0  0  0  0  0  0
   20.1161   -6.9517    0.0000 C    0  0  0  0  0  0  0  0  0  0  0  0
   22.6526   -8.9014    0.0000 C    0  0  0  0  0  0  0  0  0  0  0  0
   20.2947   -8.2696    0.0000 C    0  0  0  0  0  0  0  0  0  0  0  0
   21.3423   -9.0756    0.0000 C    0  0  0  0  0  0  0  0  0  0  0  0
   20.2580   -4.7538    0.0000 Rh   0  0  0  0  0  0  0  0  0  0  0  0
   20.9271   -3.6111    0.0000 C    0  0  0  0  0  0  0  0  0  0  0  0
   18.9414   -4.7575    0.0000 P    0  0  0  0  0  5  0  0  0  0  0  0
   18.9408   -6.0660    0.0000 C    0  0  0  0  0  0  0  0  0  0  0  0
   18.9409   -3.4289    0.0000 C    0  0  0  0  0  0  0  0  0  0  0  0
   17.6207   -4.7534    0.0000 C    0  0  0  0  0  0  0  0  0  0  0  0
  1  2  1  0  0  0  0
  1  3  1  0  0  0  0
  2  5  1  0  0  0  0
  3  4  2  0  0  0  0
  4  6  1  0  0  0  0
  5  7  2  0  0  0  0
  6  8  1  0  0  0  0
  7  8  1  0  0  0  0
  9 10  1  0  0  0  0
  2  9  1  0  0  0  0
  9 11  1  0  0  0  0
 11 12  1  0  0  0  0
 11 13  1  0  0  0  0
 11 14  1  0  0  0  0
M  END
> <NMREDATA_VERSION>
1.1

> <NMREDATA_LEVEL>
0

> <NMREDATA_SOLVENT>
C6D6

> <NMREDATA_TEMPERATURE>
298

> <NMREDATA_FORMULA>
C12H24PRh

> <NMREDATA_SMILES>
C[Rh](P(C)(C)C)C1C=CCCC=CC1

> <NMREDATA_ASSIGNMENT>
Rh9, 23.00, 9

> <NMREDATA_1D_103Rh>
23.00, L=Rh9

$$$$
