
  ACD/LABS04022410282D

 13 12  0  0  0  0  0  0  0  0  1 V2000
   16.5529  -18.3316    0.0000 Rh   0  0  0  0  0  0  0  0  0  0  0  0
   14.6621  -17.2259    0.0000 Cl   0  0  0  0  0  0  0  0  0  0  0  0
   14.3255  -18.6040    0.0000 Cl   0  0  0  0  0  0  0  0  0  0  0  0
   16.0241  -20.1263    0.0000 Cl   0  0  0  0  0  0  0  0  0  0  0  0
   18.5890  -17.5241    0.0000 N    0  0  0  0  0  0  0  0  0  0  0  0
   20.6251  -16.7166    0.0000 C    0  0  0  0  0  0  0  0  0  0  0  0
   18.1706  -19.8083    0.0000 N    0  0  0  0  0  0  0  0  0  0  0  0
   19.7883  -21.2851    0.0000 C    0  0  0  0  0  0  0  0  0  0  0  0
   16.7187  -16.1475    0.0000 N    0  0  0  0  0  0  0  0  0  0  0  0
   16.8846  -13.9634    0.0000 C    0  0  0  0  0  0  0  0  0  0  0  0
   16.9535  -12.5308    0.0000 C    0  0  0  0  0  0  0  0  0  0  0  0
   22.2735  -16.1202    0.0000 C    0  0  0  0  0  0  0  0  0  0  0  0
   20.9916  -22.3696    0.0000 C    0  0  0  0  0  0  0  0  0  0  0  0
  1  2  1  0  0  0  0
  1  3  1  0  0  0  0
  1  4  1  0  0  0  0
  5  6  3  0  0  0  0
  1  5  1  0  0  0  0
  7  8  3  0  0  0  0
  1  7  1  0  0  0  0
  9 10  3  0  0  0  0
  1  9  1  0  0  0  0
 10 11  1  0  0  0  0
  6 12  1  0  0  0  0
  8 13  1  0  0  0  0
M  END
> <NMREDATA_VERSION>
1.1

> <NMREDATA_LEVEL>
0

> <NMREDATA_SOLVENT>
nitromethane

> <NMREDATA_TEMPERATURE>
293

> <NMREDATA_FORMULA>
C6H12Cl3N3Rh

> <NMREDATA_SMILES>
CC#N[Rh](N#CC)(N#CC)(Cl)(Cl)Cl

> <NMREDATA_ASSIGNMENT>
Rh1, 5930.00, 1

> <NMREDATA_1D_103Rh>
5930.00, L=Rh1

$$$$
