
  ACD/LABS03092411112D

 34 37  0  0  0  0  0  0  0  0  1 V2000
   16.4779  -11.0007    0.0000 C    0  0  0  0  0  0  0  0  0  0  0  0
   16.4774  -12.3312    0.0000 C    0  0  0  0  0  0  0  0  0  0  0  0
   15.3264  -10.3358    0.0000 C    0  0  0  0  0  0  0  0  0  0  0  0
   15.3252  -12.9971    0.0000 C    0  0  0  0  0  0  0  0  0  0  0  0
   14.1743  -11.0015    0.0000 C    0  0  0  0  0  0  0  0  0  0  0  0
   14.1737  -12.3323    0.0000 C    0  0  0  0  0  0  0  0  0  0  0  0
   11.3916   -9.1903    0.0000 C    0  0  0  0  0  0  0  0  0  0  0  0
   10.7259   -8.0383    0.0000 C    0  0  0  0  0  0  0  0  0  0  0  0
   12.7140   -9.1861    0.0000 C    0  0  0  0  0  0  0  0  0  0  0  0
   11.3909   -6.8865    0.0000 C    0  0  0  0  0  0  0  0  0  0  0  0
   13.3790   -8.0343    0.0000 C    0  0  0  0  0  0  0  0  0  0  0  0
   12.7215   -6.8869    0.0000 C    0  0  0  0  0  0  0  0  0  0  0  0
    8.7358  -11.4854    0.0000 C    0  0  0  0  0  0  0  0  0  0  0  0
   10.0663  -11.4858    0.0000 C    0  0  0  0  0  0  0  0  0  0  0  0
    8.0709  -12.6369    0.0000 C    0  0  0  0  0  0  0  0  0  0  0  0
   10.7239  -12.6332    0.0000 C    0  0  0  0  0  0  0  0  0  0  0  0
    8.7366  -13.7889    0.0000 C    0  0  0  0  0  0  0  0  0  0  0  0
   10.0590  -13.7847    0.0000 C    0  0  0  0  0  0  0  0  0  0  0  0
    9.5748   -9.6771    0.0000 Rh   0  0  0  0  0  0  0  0  0  0  0  0
    8.5629  -10.5255    0.0000 H    0  0  0  0  0  0  0  0  0  0  0  0
    9.8084   -8.3683    0.0000 C    0  0  0  0  0  0  0  0  0  0  0  0
   10.0464   -7.0523    0.0000 O    0  0  0  0  0  0  0  0  0  0  0  0
    8.4233   -9.0123    0.0000 C    0  0  0  0  0  0  0  0  0  0  0  0
    7.2717   -8.3474    0.0000 O    0  0  0  0  0  0  0  0  0  0  0  0
   10.7266  -10.3421    0.0000 P    0  0  0  0  0  0  0  0  0  0  0  0
   11.8703  -11.0024    0.0000 C    0  0  0  0  0  0  0  0  0  0  0  0
   11.8745  -12.3249    0.0000 C    0  0  0  0  0  0  0  0  0  0  0  0
   13.0263  -12.9899    0.0000 P    0  0  0  0  0  0  0  0  0  0  0  0
   13.0302  -14.3128    0.0000 C    0  0  0  0  0  0  0  0  0  0  0  0
   14.1818  -14.9777    0.0000 C    0  0  0  0  0  0  0  0  0  0  0  0
   11.8782  -14.9785    0.0000 C    0  0  0  0  0  0  0  0  0  0  0  0
   14.1813  -16.3082    0.0000 C    0  0  0  0  0  0  0  0  0  0  0  0
   11.8777  -16.3090    0.0000 C    0  0  0  0  0  0  0  0  0  0  0  0
   13.0293  -16.9739    0.0000 C    0  0  0  0  0  0  0  0  0  0  0  0
  1  2  1  0  0  0  0
  1  3  2  0  0  0  0
  2  4  2  0  0  0  0
  3  5  1  0  0  0  0
  4  6  1  0  0  0  0
  5  6  2  0  0  0  0
  7  8  1  0  0  0  0
  7  9  2  0  0  0  0
  8 10  2  0  0  0  0
  9 11  1  0  0  0  0
 10 12  1  0  0  0  0
 11 12  2  0  0  0  0
 13 14  1  0  0  0  0
 13 15  2  0  0  0  0
 14 16  2  0  0  0  0
 15 17  1  0  0  0  0
 16 18  1  0  0  0  0
 17 18  2  0  0  0  0
 19 20  1  0  0  0  0
 19 21  2  0  0  0  0
 21 22  2  0  0  0  0
 19 23  2  0  0  0  0
 23 24  2  0  0  0  0
 19 25  1  0  0  0  0
 14 25  1  0  0  0  0
  7 25  1  0  0  0  0
 25 26  1  0  0  0  0
 26 27  1  0  0  0  0
 27 28  1  0  0  0  0
 29 30  1  0  0  0  0
 29 31  2  0  0  0  0
 30 32  2  0  0  0  0
 31 33  1  0  0  0  0
 32 34  1  0  0  0  0
 33 34  2  0  0  0  0
 28 29  1  0  0  0  0
  6 28  1  0  0  0  0
M  END
> <NMREDATA_VERSION>
1.1

> <NMREDATA_LEVEL>
0

> <NMREDATA_SOLVENT>
THF

> <NMREDATA_TEMPERATURE>
298

> <NMREDATA_FORMULA>
C28H26O2P2Rh

> <NMREDATA_SMILES>
O=C=[RhH](=C=O)P(c1ccccc1)(c1ccccc1)CCP(c1ccccc1)c1ccccc1

> <NMREDATA_ASSIGNMENT>
Rh19, -1073.00, 19

> <NMREDATA_1D_103Rh>
-1073.00, L=Rh19

$$$$
