
  ACD/LABS03252414502D

 31 33  0  0  0  0  0  0  0  0  1 V2000
   18.2136   -9.1616    0.0000 Rh   0  0  0  0  0  0  0  0  0  0  0  0
   17.0618   -8.4966    0.0000 Cl   0  0  0  0  0  0  0  0  0  0  0  0
   19.3654   -9.8266    0.0000 Cl   0  0  0  0  0  0  0  0  0  0  0  0
   18.8786   -8.0097    0.0000 C    0  0  0  0  0  0  0  0  0  0  0  0
   18.2136   -6.8579    0.0000 Cl   0  0  0  0  0  0  0  0  0  0  0  0
   17.5486  -10.3134    0.0000 N    0  0  0  0  0  0  0  0  0  0  0  0
   18.2136  -11.4652    0.0000 C    0  0  0  0  0  0  0  0  0  0  0  0
   16.2185  -10.3134    0.0000 C    0  0  0  0  0  0  0  0  0  0  0  0
   17.5486  -12.6171    0.0000 C    0  0  0  0  0  0  0  0  0  0  0  0
   15.5535  -11.4652    0.0000 C    0  0  0  0  0  0  0  0  0  0  0  0
   16.2185  -12.6171    0.0000 C    0  0  0  0  0  0  0  0  0  0  0  0
   19.5436  -11.4652    0.0000 C    0  0  0  0  0  0  0  0  0  0  0  0
   15.5535   -9.1616    0.0000 C    0  0  0  0  0  0  0  0  0  0  0  0
   20.2086  -10.3134    0.0000 N    0  0  0  0  0  0  0  0  0  0  0  0
   16.2185   -8.0097    0.0000 N    0  0  0  0  0  0  0  0  0  0  0  0
   21.5386  -10.3134    0.0000 O    0  0  0  0  0  0  0  0  0  0  0  0
   15.5535   -6.8579    0.0000 O    0  0  0  0  0  0  0  0  0  0  0  0
   18.2136   -4.5542    0.0000 C    0  0  0  0  0  0  0  0  0  0  0  0
   17.5486   -5.7061    0.0000 C    0  0  0  0  0  0  0  0  0  0  0  0
   17.5486   -3.4024    0.0000 C    0  0  0  0  0  0  0  0  0  0  0  0
   16.2185   -5.7061    0.0000 C    0  0  0  0  0  0  0  0  0  0  0  0
   16.2185   -3.4024    0.0000 C    0  0  0  0  0  0  0  0  0  0  0  0
   15.5535   -4.5542    0.0000 C    0  0  0  0  0  0  0  0  0  0  0  0
   23.5337   -6.8579    0.0000 C    0  0  0  0  0  0  0  0  0  0  0  0
   24.1987   -8.0098    0.0000 C    0  0  0  0  0  0  0  0  0  0  0  0
   22.2037   -6.8579    0.0000 C    0  0  0  0  0  0  0  0  0  0  0  0
   23.5337   -9.1616    0.0000 C    0  0  0  0  0  0  0  0  0  0  0  0
   21.5386   -8.0097    0.0000 C    0  0  0  0  0  0  0  0  0  0  0  0
   22.2037   -9.1616    0.0000 C    0  0  0  0  0  0  0  0  0  0  0  0
   20.2086  -12.6170    0.0000 C    0  0  0  0  0  0  0  0  0  0  0  0
   14.2235   -9.1616    0.0000 C    0  0  0  0  0  0  0  0  0  0  0  0
  1  2  1  0  0  0  0
  1  3  1  0  0  0  0
  1  4  1  0  0  0  0
  4  5  1  0  0  0  0
  6  7  1  0  0  0  0
  6  8  2  0  0  0  0
  7  9  2  0  0  0  0
  8 10  1  0  0  0  0
  9 11  1  0  0  0  0
 10 11  2  0  0  0  0
  1  6  1  0  0  0  0
  7 12  1  0  0  0  0
  8 13  1  0  0  0  0
 12 14  2  0  0  0  0
 13 15  2  0  0  0  0
 14 16  1  0  0  0  0
 15 17  1  0  0  0  0
 18 19  1  0  0  0  0
 18 20  2  0  0  0  0
 19 21  2  0  0  0  0
 20 22  1  0  0  0  0
 21 23  1  0  0  0  0
 22 23  2  0  0  0  0
 17 21  1  0  0  0  0
 24 25  1  0  0  0  0
 24 26  2  0  0  0  0
 25 27  2  0  0  0  0
 26 28  1  0  0  0  0
 27 29  1  0  0  0  0
 28 29  2  0  0  0  0
 16 29  1  0  0  0  0
 12 30  1  0  0  0  0
 13 31  1  0  0  0  0
M  END
> <NMREDATA_VERSION>
1.1

> <NMREDATA_LEVEL>
0

> <NMREDATA_SOLVENT>
CD2Cl2

> <NMREDATA_TEMPERATURE>
298

> <NMREDATA_FORMULA>
C22H22Cl3N3O2Rh

> <NMREDATA_SMILES>
ClC[Rh](N1=C(C=CC=C1/C(=N/Oc1ccccc1)/C)/C(=N/Oc1ccccc1)/C)(Cl)Cl

> <NMREDATA_ASSIGNMENT>
Rh1, 3561.00, 1

> <NMREDATA_1D_103Rh>
3561.00, L=Rh1

$$$$
