
  ACD/LABS03312417452D

 72 82  0  0  0  0  0  0  0  0  1 V2000
   11.3111  -18.2595    0.0000 C    0  0  0  0  0  0  0  0  0  0  0  0
   11.3111  -19.5895    0.0000 C    0  0  0  0  0  0  0  0  0  0  0  0
   10.1592  -17.5945    0.0000 C    0  0  0  0  0  0  0  0  0  0  0  0
   10.1592  -20.2545    0.0000 C    0  0  0  0  0  0  0  0  0  0  0  0
    9.0074  -18.2595    0.0000 C    0  0  0  0  0  0  0  0  0  0  0  0
    9.0074  -19.5895    0.0000 C    0  0  0  0  0  0  0  0  0  0  0  0
   11.3592  -13.7727    0.0000 C    0  0  0  0  0  0  0  0  0  0  0  0
   11.3592  -15.1027    0.0000 C    0  0  0  0  0  0  0  0  0  0  0  0
   10.2073  -13.1077    0.0000 C    0  0  0  0  0  0  0  0  0  0  0  0
   10.2073  -15.7677    0.0000 C    0  0  0  0  0  0  0  0  0  0  0  0
    9.0555  -13.7727    0.0000 C    0  0  0  0  0  0  0  0  0  0  0  0
    9.0555  -15.1027    0.0000 C    0  0  0  0  0  0  0  0  0  0  0  0
   11.9521  -10.6640    0.0000 C    0  0  0  0  0  0  0  0  0  0  0  0
   11.9521  -11.9940    0.0000 C    0  0  0  0  0  0  0  0  0  0  0  0
   10.8002   -9.9990    0.0000 C    0  0  0  0  0  0  0  0  0  0  0  0
   10.8002  -12.6590    0.0000 C    0  0  0  0  0  0  0  0  0  0  0  0
    9.6484  -10.6640    0.0000 C    0  0  0  0  0  0  0  0  0  0  0  0
    9.6484  -11.9940    0.0000 C    0  0  0  0  0  0  0  0  0  0  0  0
   15.4793  -14.4858    0.0000 Rh   0  0  0  0  0  0  0  0  0  0  0  0
   13.9890  -13.3000    0.0000 P    0  0  0  0  0  0  0  0  0  0  0  0
   17.4502  -13.3801    0.0000 P    0  0  0  0  0  0  0  0  0  0  0  0
   14.8845   -9.6225    0.0000 C    0  0  0  0  0  0  0  0  0  0  0  0
   14.8845  -10.9525    0.0000 C    0  0  0  0  0  0  0  0  0  0  0  0
   13.7326   -8.9575    0.0000 C    0  0  0  0  0  0  0  0  0  0  0  0
   13.7326  -11.6175    0.0000 C    0  0  0  0  0  0  0  0  0  0  0  0
   12.5808   -9.6225    0.0000 C    0  0  0  0  0  0  0  0  0  0  0  0
   12.5808  -10.9525    0.0000 C    0  0  0  0  0  0  0  0  0  0  0  0
   18.6021  -10.1032    0.0000 C    0  0  0  0  0  0  0  0  0  0  0  0
   18.6021  -11.4332    0.0000 C    0  0  0  0  0  0  0  0  0  0  0  0
   17.4502   -9.4382    0.0000 C    0  0  0  0  0  0  0  0  0  0  0  0
   17.4502  -12.0982    0.0000 C    0  0  0  0  0  0  0  0  0  0  0  0
   16.2984  -10.1032    0.0000 C    0  0  0  0  0  0  0  0  0  0  0  0
   16.2984  -11.4332    0.0000 C    0  0  0  0  0  0  0  0  0  0  0  0
   21.5345  -11.0486    0.0000 C    0  0  0  0  0  0  0  0  0  0  0  0
   21.5345  -12.3786    0.0000 C    0  0  0  0  0  0  0  0  0  0  0  0
   20.3826  -10.3836    0.0000 C    0  0  0  0  0  0  0  0  0  0  0  0
   20.3826  -13.0436    0.0000 C    0  0  0  0  0  0  0  0  0  0  0  0
   19.2308  -11.0486    0.0000 C    0  0  0  0  0  0  0  0  0  0  0  0
   19.2308  -12.3786    0.0000 C    0  0  0  0  0  0  0  0  0  0  0  0
   21.5986  -14.4618    0.0000 C    0  0  0  0  0  0  0  0  0  0  0  0
   21.5986  -15.7918    0.0000 C    0  0  0  0  0  0  0  0  0  0  0  0
   20.4467  -13.7968    0.0000 C    0  0  0  0  0  0  0  0  0  0  0  0
   20.4467  -16.4568    0.0000 C    0  0  0  0  0  0  0  0  0  0  0  0
   19.2949  -14.4618    0.0000 C    0  0  0  0  0  0  0  0  0  0  0  0
   19.2949  -15.7918    0.0000 C    0  0  0  0  0  0  0  0  0  0  0  0
   13.4442  -15.3831    0.0000 H    0  0  0  0  0  0  0  0  0  0  0  0
   12.9635  -16.8894    0.0000 Sn   0  0  0  0  0  4  0  0  0  0  0  0
   13.2784  -18.1816    0.0000 C    0  0  0  0  0  0  0  0  0  0  0  0
   14.5549  -18.5550    0.0000 C    0  0  0  0  0  0  0  0  0  0  0  0
   12.3167  -19.1004    0.0000 C    0  0  0  0  0  0  0  0  0  0  0  0
   14.8697  -19.8473    0.0000 C    0  0  0  0  0  0  0  0  0  0  0  0
   12.6315  -20.3926    0.0000 C    0  0  0  0  0  0  0  0  0  0  0  0
   13.9080  -20.7661    0.0000 C    0  0  0  0  0  0  0  0  0  0  0  0
   11.6870  -16.5160    0.0000 C    0  0  0  0  0  0  0  0  0  0  0  0
   10.7253  -17.4347    0.0000 C    0  0  0  0  0  0  0  0  0  0  0  0
   11.3721  -15.2237    0.0000 C    0  0  0  0  0  0  0  0  0  0  0  0
    9.4488  -17.0612    0.0000 C    0  0  0  0  0  0  0  0  0  0  0  0
   10.0956  -14.8503    0.0000 C    0  0  0  0  0  0  0  0  0  0  0  0
    9.1340  -15.7691    0.0000 C    0  0  0  0  0  0  0  0  0  0  0  0
   16.7612  -16.9855    0.0000 O    0  0  0  0  0  0  0  0  0  0  0  0
   18.3636  -17.6425    0.0000 C    0  0  0  0  0  0  0  0  0  0  0  0
   19.2449  -17.1939    0.0000 O    0  0  0  0  0  0  0  0  0  0  0  0
   18.4180  -18.9714    0.0000 C    0  0  0  0  0  0  0  0  0  0  0  0
   19.5960  -19.5888    0.0000 C    0  0  0  0  0  0  0  0  0  0  0  0
   17.2943  -19.6830    0.0000 N    0  0  0  0  0  0  0  0  0  0  0  0
   19.6503  -20.9178    0.0000 C    0  0  0  0  0  0  0  0  0  0  0  0
   17.3487  -21.0119    0.0000 C    0  0  0  0  0  0  0  0  0  0  0  0
   18.5267  -21.6293    0.0000 C    0  0  0  0  0  0  0  0  0  0  0  0
   20.7198  -18.8773    0.0000 C    0  0  0  0  0  0  0  0  0  0  0  0
   21.8978  -19.4949    0.0000 C    0  0  0  0  0  0  0  0  0  0  0  0
   20.8283  -21.5352    0.0000 C    0  0  0  0  0  0  0  0  0  0  0  0
   21.9520  -20.8237    0.0000 C    0  0  0  0  0  0  0  0  0  0  0  0
  1  2  1  0  0  0  0
  1  3  2  0  0  0  0
  2  4  2  0  0  0  0
  3  5  1  0  0  0  0
  4  6  1  0  0  0  0
  5  6  2  0  0  0  0
  7  8  1  0  0  0  0
  7  9  2  0  0  0  0
  8 10  2  0  0  0  0
  9 11  1  0  0  0  0
 10 12  1  0  0  0  0
 11 12  2  0  0  0  0
 13 14  1  0  0  0  0
 13 15  2  0  0  0  0
 14 16  2  0  0  0  0
 15 17  1  0  0  0  0
 16 18  1  0  0  0  0
 17 18  2  0  0  0  0
 19 20  1  0  0  0  0
 19 21  1  0  0  0  0
 22 23  1  0  0  0  0
 22 24  2  0  0  0  0
 23 25  2  0  0  0  0
 24 26  1  0  0  0  0
 25 27  1  0  0  0  0
 26 27  2  0  0  0  0
 20 25  1  0  0  0  0
 14 20  1  0  0  0  0
  7 20  1  0  0  0  0
 28 29  1  0  0  0  0
 28 30  2  0  0  0  0
 29 31  2  0  0  0  0
 30 32  1  0  0  0  0
 31 33  1  0  0  0  0
 32 33  2  0  0  0  0
 21 31  1  0  0  0  0
 34 35  1  0  0  0  0
 34 36  2  0  0  0  0
 35 37  2  0  0  0  0
 36 38  1  0  0  0  0
 37 39  1  0  0  0  0
 38 39  2  0  0  0  0
 21 39  1  0  0  0  0
 40 41  1  0  0  0  0
 40 42  2  0  0  0  0
 41 43  2  0  0  0  0
 42 44  1  0  0  0  0
 43 45  1  0  0  0  0
 44 45  2  0  0  0  0
 21 44  1  0  0  0  0
 19 46  1  0  0  0  0
 19 47  1  0  0  0  0
 48 49  1  0  0  0  0
 48 50  2  0  0  0  0
 49 51  2  0  0  0  0
 50 52  1  0  0  0  0
 51 53  1  0  0  0  0
 52 53  2  0  0  0  0
 47 48  1  0  0  0  0
 54 55  1  0  0  0  0
 54 56  2  0  0  0  0
 55 57  2  0  0  0  0
 56 58  1  0  0  0  0
 57 59  1  0  0  0  0
 58 59  2  0  0  0  0
 47 54  1  0  0  0  0
  1 47  1  0  0  0  0
 19 60  1  0  0  0  0
 60 61  1  0  0  0  0
 61 62  2  0  0  0  0
 63 64  1  0  0  0  0
 63 65  2  0  0  0  0
 65 67  1  0  0  0  0
 66 68  1  0  0  0  0
 67 68  2  0  0  0  0
 61 63  1  0  0  0  0
 64 69  1  0  0  0  0
 64 66  2  0  0  0  0
 69 70  2  0  0  0  0
 66 71  1  0  0  0  0
 70 72  1  0  0  0  0
 71 72  2  0  0  0  0
M  END
> <NMREDATA_VERSION>
1.1

> <NMREDATA_LEVEL>
0

> <NMREDATA_SOLVENT>
CD2Cl2

> <NMREDATA_TEMPERATURE>
248

> <NMREDATA_FORMULA>
C64H54NO2P2RhSn

> <NMREDATA_SMILES>
O=C(c1nccc2c1cccc2)O[RhH]([Sn](c1ccccc1)(c1ccccc1)c1ccccc1)(P(c1ccccc1)(c1ccccc1)c1ccccc1)P(c1ccccc1)(c1ccccc1)c1ccccc1

> <NMREDATA_ASSIGNMENT>
Rh19, 798.00, 19

> <NMREDATA_1D_103Rh>
798.00, L=Rh19

$$$$
