
  ACD/LABS04032410202D

 10  6  0  0  0  0  0  0  0  0  2 V2000
   13.4522  -16.9375    0.0000 Rh   0  7  0  0  0  0  0  0  0  0  0  0
   12.7231  -15.6746    0.0000 Cl   0  0  0  0  0  0  0  0  0  0  0  0
   14.1813  -15.6746    0.0000 Cl   0  0  0  0  0  0  0  0  0  0  0  0
   14.9104  -16.9375    0.0000 Cl   0  0  0  0  0  0  0  0  0  0  0  0
   12.7231  -18.2003    0.0000 Cl   0  0  0  0  0  0  0  0  0  0  0  0
   11.9940  -16.9375    0.0000 Cl   0  0  0  0  0  0  0  0  0  0  0  0
   14.1813  -18.2003    0.0000 Cl   0  0  0  0  0  0  0  0  0  0  0  0
   19.3090  -13.9410    0.0000 H    0  3  0  0  0  0  0  0  0  0  0  0
   19.6295  -15.1908    0.0000 H    0  3  0  0  0  0  0  0  0  0  0  0
   21.7928  -14.7582    0.0000 H    0  3  0  0  0  0  0  0  0  0  0  0
  1  2  1  0  0  0  0
  1  3  1  0  0  0  0
  1  4  1  0  0  0  0
  1  5  1  0  0  0  0
  1  6  1  0  0  0  0
  1  7  1  0  0  0  0
M  END
> <NMREDATA_VERSION>
1.1

> <NMREDATA_LEVEL>
0

> <NMREDATA_SOLVENT>
HClO4 (aq)

> <NMREDATA_TEMPERATURE>
276

> <NMREDATA_FORMULA>
Cl6Rh

> <NMREDATA_SMILES>
Cl[Rh](Cl)(Cl)(Cl)(Cl)Cl.[HH].[HH].[HH]

> <NMREDATA_ASSIGNMENT>
Rh1, 8001.00, 1

> <NMREDATA_1D_103Rh>
8001.00, L=Rh1

$$$$
