
  ACD/LABS04032413542D

 46 45  0  0  0  0  0  0  0  0  1 V2000
   18.3891  -18.2109    0.0000 C    0  0  0  0  0  0  0  0  0  0  0  0
   19.6504  -19.3530    0.0000 As   0  0  0  0  0  0  0  0  0  0  0  0
   21.2578  -18.8306    0.0000 C    0  0  0  0  0  0  0  0  0  0  0  0
   19.2979  -21.0083    0.0000 C    0  0  0  0  0  0  0  0  0  0  0  0
   15.7728  -20.1136    0.0000 C    0  0  0  0  0  0  0  0  0  0  0  0
   14.0875  -19.9355    0.0000 As   0  0  0  0  0  0  0  0  0  0  0  0
   13.3909  -18.3889    0.0000 C    0  0  0  0  0  0  0  0  0  0  0  0
   13.0889  -21.3103    0.0000 C    0  0  0  0  0  0  0  0  0  0  0  0
   16.7712  -18.7394    0.0000 C    0  0  0  0  0  0  0  0  0  0  0  0
   15.1618  -18.2168    0.0000 C    0  0  0  0  0  0  0  0  0  0  0  0
   17.7724  -20.1102    0.0000 C    0  0  0  0  0  0  0  0  0  0  0  0
   17.0739  -21.6646    0.0000 As   0  0  0  0  0  0  0  0  0  0  0  0
   15.3846  -21.8422    0.0000 C    0  0  0  0  0  0  0  0  0  0  0  0
   18.0803  -23.0453    0.0000 C    0  0  0  0  0  0  0  0  0  0  0  0
   15.0482  -11.9260    0.0000 C    0  0  0  0  0  0  0  0  0  0  0  0
   13.5443  -11.1332    0.0000 As   0  0  0  0  0  0  0  0  0  0  0  0
   12.1008  -12.0317    0.0000 C    0  0  0  0  0  0  0  0  0  0  0  0
   13.4777   -9.4321    0.0000 C    0  0  0  0  0  0  0  0  0  0  0  0
   14.2336  -17.0395    0.0000 C    0  0  0  0  0  0  0  0  0  0  0  0
   12.5416  -16.9179    0.0000 As   0  0  0  0  0  0  0  0  0  0  0  0
   11.7958  -15.3997    0.0000 C    0  0  0  0  0  0  0  0  0  0  0  0
   11.5910  -18.3301    0.0000 C    0  0  0  0  0  0  0  0  0  0  0  0
   15.1842  -15.6273    0.0000 C    0  0  0  0  0  0  0  0  0  0  0  0
   16.2280  -16.9601    0.0000 C    0  0  0  0  0  0  0  0  0  0  0  0
   13.4890  -15.4555    0.0000 C    0  0  0  0  0  0  0  0  0  0  0  0
   12.8019  -13.9028    0.0000 As   0  0  0  0  0  0  0  0  0  0  0  0
   13.8003  -12.5287    0.0000 C    0  0  0  0  0  0  0  0  0  0  0  0
   11.1167  -13.7251    0.0000 C    0  0  0  0  0  0  0  0  0  0  0  0
   20.3241  -14.8572    0.0000 C    0  0  0  0  0  0  0  0  0  0  0  0
   21.9436  -15.3740    0.0000 As   0  0  0  0  0  0  0  0  0  0  0  0
   23.2001  -14.2429    0.0000 C    0  0  0  0  0  0  0  0  0  0  0  0
   22.2923  -17.0429    0.0000 C    0  0  0  0  0  0  0  0  0  0  0  0
   20.6696  -11.6497    0.0000 C    0  0  0  0  0  0  0  0  0  0  0  0
   19.6630  -10.2686    0.0000 As   0  0  0  0  0  0  0  0  0  0  0  0
   17.9734  -10.4464    0.0000 C    0  0  0  0  0  0  0  0  0  0  0  0
   20.3611   -8.7144    0.0000 C    0  0  0  0  0  0  0  0  0  0  0  0
   19.9812  -13.1983    0.0000 C    0  0  0  0  0  0  0  0  0  0  0  0
   18.7100  -12.0614    0.0000 C    0  0  0  0  0  0  0  0  0  0  0  0
   21.6605  -13.3659    0.0000 C    0  0  0  0  0  0  0  0  0  0  0  0
   22.6647  -12.0018    0.0000 As   0  0  0  0  0  0  0  0  0  0  0  0
   21.9777  -10.4496    0.0000 C    0  0  0  0  0  0  0  0  0  0  0  0
   24.3446  -12.1696    0.0000 C    0  0  0  0  0  0  0  0  0  0  0  0
   16.7832  -15.0446    0.0000 Rh   0  0  0  0  0  0  0  0  0  0  0  0
   15.3112  -14.1936    0.0000 I    0  0  0  0  0  0  0  0  0  0  0  0
   18.2392  -15.8904    0.0000 I    0  0  0  0  0  0  0  0  0  0  0  0
   16.7725  -13.3500    0.0000 I    0  0  0  0  0  0  0  0  0  0  0  0
  1  2  1  0  0  0  0
  2  3  1  0  0  0  0
  2  4  1  0  0  0  0
  5  6  1  0  0  0  0
  6  7  1  0  0  0  0
  6  8  1  0  0  0  0
  9 10  1  0  0  0  0
  9 11  1  0  0  0  0
 11 12  1  0  0  0  0
 12 13  1  0  0  0  0
 12 14  1  0  0  0  0
  5  9  1  0  0  0  0
  1  9  1  0  0  0  0
 15 16  1  0  0  0  0
 16 17  1  0  0  0  0
 16 18  1  0  0  0  0
 19 20  1  0  0  0  0
 20 21  1  0  0  0  0
 20 22  1  0  0  0  0
 23 24  1  0  0  0  0
 23 25  1  0  0  0  0
 25 26  1  0  0  0  0
 26 27  1  0  0  0  0
 26 28  1  0  0  0  0
 19 23  1  0  0  0  0
 15 23  1  0  0  0  0
 29 30  1  0  0  0  0
 30 31  1  0  0  0  0
 30 32  1  0  0  0  0
 33 34  1  0  0  0  0
 34 35  1  0  0  0  0
 34 36  1  0  0  0  0
 37 38  1  0  0  0  0
 37 39  1  0  0  0  0
 39 40  1  0  0  0  0
 40 41  1  0  0  0  0
 40 42  1  0  0  0  0
 33 37  1  0  0  0  0
 29 37  1  0  0  0  0
 43 44  1  0  0  0  0
 43 45  1  0  0  0  0
 43 46  1  0  0  0  0
 37 43  1  0  0  0  0
 23 43  1  0  0  0  0
  9 43  1  0  0  0  0
M  END
> <NMREDATA_VERSION>
1.1

> <NMREDATA_LEVEL>
0

> <NMREDATA_SOLVENT>
DMF-d7

> <NMREDATA_TEMPERATURE>
300

> <NMREDATA_FORMULA>
C33H81As9I3Rh

> <NMREDATA_SMILES>
C[As](C[C]([Rh]([C](C[As](C)C)(C[As](C)C)(C[As](C)C)C)([C](C[As](C)C)(C[As](C)C)(C[As](C)C)C)(I)(I)I)(C[As](C)C)(C[As](C)C)C)C

> <NMREDATA_ASSIGNMENT>
Rh43, 1178.00, 43

> <NMREDATA_1D_103Rh>
1178.00, L=Rh43

$$$$
