
  ACD/LABS03242411432D

 38 40  0  0  0  0  0  0  0  0  1 V2000
   20.5832   -8.0937    0.0000 C    0  0  0  0  0  0  0  0  0  0  0  0
   21.2472   -6.9431    0.0000 C    0  0  0  0  0  0  0  0  0  0  0  0
   19.2556   -8.0937    0.0000 C    0  0  0  0  0  0  0  0  0  0  0  0
   20.5832   -5.7924    0.0000 C    0  0  0  0  0  0  0  0  0  0  0  0
   18.5919   -6.9431    0.0000 C    0  0  0  0  0  0  0  0  0  0  0  0
   19.2556   -5.7924    0.0000 C    0  0  0  0  0  0  0  0  0  0  0  0
   11.7771  -12.4390    0.0000 O    0  0  0  0  0  0  0  0  0  0  0  0
   12.2287  -11.1911    0.0000 N    0  0  0  0  0  0  0  0  0  0  0  0
   13.5384  -10.9607    0.0000 C    0  0  0  0  0  0  0  0  0  0  0  0
   14.3882  -11.9787    0.0000 C    0  0  0  0  0  0  0  0  0  0  0  0
   13.9988   -9.7219    0.0000 C    0  0  0  0  0  0  0  0  0  0  0  0
   13.1403   -8.6952    0.0000 C    0  0  0  0  0  0  0  0  0  0  0  0
   15.2997   -9.4916    0.0000 N    0  0  0  0  0  0  0  0  0  0  0  0
   15.7601   -8.2528    0.0000 O    0  0  0  0  0  0  0  0  0  0  0  0
   19.4325  -14.4921    0.0000 O    0  0  0  0  0  0  0  0  0  0  0  0
   18.4062  -13.6427    0.0000 N    0  0  0  0  0  0  0  0  0  0  0  0
   18.6362  -12.3326    0.0000 C    0  0  0  0  0  0  0  0  0  0  0  0
   19.8841  -11.8726    0.0000 C    0  0  0  0  0  0  0  0  0  0  0  0
   17.6182  -11.4832    0.0000 C    0  0  0  0  0  0  0  0  0  0  0  0
   16.3795  -11.9344    0.0000 C    0  0  0  0  0  0  0  0  0  0  0  0
   17.8486  -10.1731    0.0000 N    0  0  0  0  0  0  0  0  0  0  0  0
   16.8307   -9.3234    0.0000 O    0  0  0  0  0  0  0  0  0  0  0  0
   17.0606   -8.0228    0.0000 Rh   0  0  0  0  0  0  0  0  0  0  0  0
   18.3619   -8.2528    0.0000 C    0  0  0  0  0  0  0  0  0  0  0  0
   18.8219   -9.4916    0.0000 Br   0  0  0  0  0  0  0  0  0  0  0  0
   17.2819   -6.7131    0.0000 P    0  0  0  0  0  0  0  0  0  0  0  0
   17.5122   -5.4118    0.0000 C    0  0  0  0  0  0  0  0  0  0  0  0
   16.5034   -4.5533    0.0000 C    0  0  0  0  0  0  0  0  0  0  0  0
   18.7601   -4.9518    0.0000 C    0  0  0  0  0  0  0  0  0  0  0  0
   16.7243   -3.2523    0.0000 C    0  0  0  0  0  0  0  0  0  0  0  0
   18.9901   -3.6417    0.0000 C    0  0  0  0  0  0  0  0  0  0  0  0
   17.9722   -2.7923    0.0000 C    0  0  0  0  0  0  0  0  0  0  0  0
   15.9900   -6.4919    0.0000 C    0  0  0  0  0  0  0  0  0  0  0  0
   15.1315   -7.5095    0.0000 C    0  0  0  0  0  0  0  0  0  0  0  0
   15.5301   -5.2436    0.0000 C    0  0  0  0  0  0  0  0  0  0  0  0
   13.8306   -7.2795    0.0000 C    0  0  0  0  0  0  0  0  0  0  0  0
   14.2200   -5.0136    0.0000 C    0  0  0  0  0  0  0  0  0  0  0  0
   13.3702   -6.0315    0.0000 C    0  0  0  0  0  0  0  0  0  0  0  0
  1  2  1  0  0  0  0
  1  3  2  0  0  0  0
  2  4  2  0  0  0  0
  3  5  1  0  0  0  0
  4  6  1  0  0  0  0
  5  6  2  0  0  0  0
  7  8  1  0  0  0  0
  8  9  2  0  0  0  0
  9 10  1  0  0  0  0
  9 11  1  0  0  0  0
 11 12  1  0  0  0  0
 11 13  2  0  0  0  0
 13 14  1  0  0  0  0
 15 16  1  0  0  0  0
 16 17  2  0  0  0  0
 17 18  1  0  0  0  0
 17 19  1  0  0  0  0
 19 20  1  0  0  0  0
 19 21  2  0  0  0  0
 21 22  1  0  0  0  0
 22 23  1  0  0  0  0
 23 24  1  0  0  0  0
 14 23  1  0  0  0  0
 24 25  1  0  0  0  0
 23 26  1  0  0  0  0
 27 28  1  0  0  0  0
 27 29  2  0  0  0  0
 28 30  2  0  0  0  0
 29 31  1  0  0  0  0
 30 32  1  0  0  0  0
 31 32  2  0  0  0  0
 26 27  1  0  0  0  0
 33 34  1  0  0  0  0
 33 35  2  0  0  0  0
 34 36  2  0  0  0  0
 35 37  1  0  0  0  0
 36 38  1  0  0  0  0
 37 38  2  0  0  0  0
 26 33  1  0  0  0  0
  5 26  1  0  0  0  0
M  END
> <NMREDATA_VERSION>
1.1

> <NMREDATA_LEVEL>
0

> <NMREDATA_SOLVENT>
DCCl3

> <NMREDATA_TEMPERATURE>
298

> <NMREDATA_FORMULA>
C27H32BrN4O4PRh

> <NMREDATA_SMILES>
BrC[Rh](P(c1ccccc1)(c1ccccc1)c1ccccc1)(O/N=C(/C(=N/O)/C)\C)O/N=C(/C(=N/O)/C)\C

> <NMREDATA_ASSIGNMENT>
Rh23, 2075.00, 23

> <NMREDATA_1D_103Rh>
2075.00, L=Rh23

$$$$
