
  ACD/LABS04022410012D

 61 69  0  0  0  0  0  0  0  0  1 V2000
   11.6571   -6.7142    0.0000 C    0  0  0  0  0  0  0  0  0  0  0  0
   12.1181   -5.4633    0.0000 C    0  0  0  0  0  0  0  0  0  0  0  0
   12.5085   -7.7342    0.0000 C    0  0  0  0  0  0  0  0  0  0  0  0
   13.4222   -5.2328    0.0000 C    0  0  0  0  0  0  0  0  0  0  0  0
   13.8213   -7.5037    0.0000 C    0  0  0  0  0  0  0  0  0  0  0  0
   14.2828   -6.2527    0.0000 C    0  0  0  0  0  0  0  0  0  0  0  0
   18.6551   -4.3190    0.0000 C    0  0  0  0  0  0  0  0  0  0  0  0
   17.3607   -4.5496    0.0000 C    0  0  0  0  0  0  0  0  0  0  0  0
   19.5157   -5.3390    0.0000 C    0  0  0  0  0  0  0  0  0  0  0  0
   16.8993   -5.8005    0.0000 C    0  0  0  0  0  0  0  0  0  0  0  0
   19.0542   -6.5899    0.0000 C    0  0  0  0  0  0  0  0  0  0  0  0
   17.7511   -6.8205    0.0000 C    0  0  0  0  0  0  0  0  0  0  0  0
   14.9036   -2.0925    0.0000 C    0  0  0  0  0  0  0  0  0  0  0  0
   13.8837   -2.9443    0.0000 C    0  0  0  0  0  0  0  0  0  0  0  0
   16.1541   -2.5539    0.0000 C    0  0  0  0  0  0  0  0  0  0  0  0
   14.1142   -4.2571    0.0000 C    0  0  0  0  0  0  0  0  0  0  0  0
   16.3851   -3.8668    0.0000 C    0  0  0  0  0  0  0  0  0  0  0  0
   15.3647   -4.7182    0.0000 C    0  0  0  0  0  0  0  0  0  0  0  0
   22.4874  -16.0894    0.0000 C    0  0  0  0  0  0  0  0  0  0  0  0
   23.7647  -15.7258    0.0000 C    0  0  0  0  0  0  0  0  0  0  0  0
   21.5293  -15.1669    0.0000 C    0  0  0  0  0  0  0  0  0  0  0  0
   24.0927  -14.4398    0.0000 C    0  0  0  0  0  0  0  0  0  0  0  0
   21.8573  -13.8720    0.0000 C    0  0  0  0  0  0  0  0  0  0  0  0
   23.1346  -13.5085    0.0000 C    0  0  0  0  0  0  0  0  0  0  0  0
   22.3895   -9.7561    0.0000 C    0  0  0  0  0  0  0  0  0  0  0  0
   23.6760  -10.0846    0.0000 C    0  0  0  0  0  0  0  0  0  0  0  0
   21.4670  -10.7142    0.0000 C    0  0  0  0  0  0  0  0  0  0  0  0
   24.0395  -11.3618    0.0000 C    0  0  0  0  0  0  0  0  0  0  0  0
   21.8310  -11.9915    0.0000 C    0  0  0  0  0  0  0  0  0  0  0  0
   23.1170  -12.3195    0.0000 C    0  0  0  0  0  0  0  0  0  0  0  0
   18.6819  -13.5792    0.0000 C    0  0  0  0  0  0  0  0  0  0  0  0
   17.7686  -14.5372    0.0000 C    0  0  0  0  0  0  0  0  0  0  0  0
   19.9767  -13.9076    0.0000 C    0  0  0  0  0  0  0  0  0  0  0  0
   18.1230  -15.8145    0.0000 C    0  0  0  0  0  0  0  0  0  0  0  0
   20.3407  -15.1849    0.0000 C    0  0  0  0  0  0  0  0  0  0  0  0
   19.4182  -16.1430    0.0000 C    0  0  0  0  0  0  0  0  0  0  0  0
   17.1302  -12.1333    0.0000 C    0  0  0  0  0  0  0  0  0  0  0  0
   16.9792  -13.4549    0.0000 C    0  0  0  0  0  0  0  0  0  0  0  0
   16.0567  -11.3438    0.0000 C    0  0  0  0  0  0  0  0  0  0  0  0
   15.7638  -13.9963    0.0000 C    0  0  0  0  0  0  0  0  0  0  0  0
   14.8413  -11.8852    0.0000 C    0  0  0  0  0  0  0  0  0  0  0  0
   14.6907  -13.2068    0.0000 C    0  0  0  0  0  0  0  0  0  0  0  0
   18.0523  -11.3882    0.0000 C    0  0  0  0  0  0  0  0  0  0  0  0
   19.3739  -11.5300    0.0000 C    0  0  0  0  0  0  0  0  0  0  0  0
   17.5201  -10.1733    0.0000 C    0  0  0  0  0  0  0  0  0  0  0  0
   20.1634  -10.4657    0.0000 C    0  0  0  0  0  0  0  0  0  0  0  0
   18.3004   -9.1089    0.0000 C    0  0  0  0  0  0  0  0  0  0  0  0
   19.6220   -9.2415    0.0000 C    0  0  0  0  0  0  0  0  0  0  0  0
   14.8769   -9.8804    0.0000 C    0  0  0  0  0  0  0  0  0  0  0  0
   14.3447   -8.6655    0.0000 C    0  0  0  0  0  0  0  0  0  0  0  0
   14.0874  -10.9535    0.0000 C    0  0  0  0  0  0  0  0  0  0  0  0
   13.0231   -8.5236    0.0000 C    0  0  0  0  0  0  0  0  0  0  0  0
   12.7658  -10.8029    0.0000 C    0  0  0  0  0  0  0  0  0  0  0  0
   12.2336   -9.5875    0.0000 C    0  0  0  0  0  0  0  0  0  0  0  0
   16.5713   -8.7542    0.0000 Rh   0  0  0  0  0  0  0  0  0  0  0  0
   17.6268   -7.9384    0.0000 Cl   0  0  0  0  0  0  0  0  0  0  0  0
   15.2584   -8.5680    0.0000 O    0  0  0  0  0  0  0  0  0  0  0  0
   14.7618   -7.3351    0.0000 O    0  0  0  0  0  0  0  0  0  0  0  0
   15.5864   -6.0310    0.0000 P    0  0  0  0  0  0  0  0  0  0  0  0
   20.8993  -12.9495    0.0000 P    0  0  0  0  0  0  0  0  0  0  0  0
   16.1985  -10.0222    0.0000 P    0  0  0  0  0  0  0  0  0  0  0  0
  1  2  1  0  0  0  0
  1  3  2  0  0  0  0
  2  4  2  0  0  0  0
  3  5  1  0  0  0  0
  4  6  1  0  0  0  0
  5  6  2  0  0  0  0
  7  8  1  0  0  0  0
  7  9  2  0  0  0  0
  8 10  2  0  0  0  0
  9 11  1  0  0  0  0
 10 12  1  0  0  0  0
 11 12  2  0  0  0  0
 13 14  1  0  0  0  0
 13 15  2  0  0  0  0
 14 16  2  0  0  0  0
 15 17  1  0  0  0  0
 16 18  1  0  0  0  0
 17 18  2  0  0  0  0
 19 20  1  0  0  0  0
 19 21  2  0  0  0  0
 20 22  2  0  0  0  0
 21 23  1  0  0  0  0
 22 24  1  0  0  0  0
 23 24  2  0  0  0  0
 25 26  1  0  0  0  0
 25 27  2  0  0  0  0
 26 28  2  0  0  0  0
 27 29  1  0  0  0  0
 28 30  1  0  0  0  0
 29 30  2  0  0  0  0
 31 32  1  0  0  0  0
 31 33  2  0  0  0  0
 32 34  2  0  0  0  0
 33 35  1  0  0  0  0
 34 36  1  0  0  0  0
 35 36  2  0  0  0  0
 37 38  1  0  0  0  0
 37 39  2  0  0  0  0
 38 40  2  0  0  0  0
 39 41  1  0  0  0  0
 40 42  1  0  0  0  0
 41 42  2  0  0  0  0
 43 44  1  0  0  0  0
 43 45  2  0  0  0  0
 44 46  2  0  0  0  0
 45 47  1  0  0  0  0
 46 48  1  0  0  0  0
 47 48  2  0  0  0  0
 49 50  1  0  0  0  0
 49 51  2  0  0  0  0
 50 52  2  0  0  0  0
 51 53  1  0  0  0  0
 52 54  1  0  0  0  0
 53 54  2  0  0  0  0
 55 56  1  0  0  0  0
 55 57  1  0  0  0  0
 57 58  2  0  0  0  0
 55 59  1  0  0  0  0
 55 60  1  0  0  0  0
 55 61  1  0  0  0  0
 49 61  1  0  0  0  0
 45 61  1  0  0  0  0
 39 61  1  0  0  0  0
 33 60  1  0  0  0  0
 29 60  1  0  0  0  0
 23 60  1  0  0  0  0
 18 59  1  0  0  0  0
 10 59  1  0  0  0  0
  6 59  1  0  0  0  0
M  END
> <NMREDATA_VERSION>
1.1

> <NMREDATA_LEVEL>
0

> <NMREDATA_SOLVENT>
DCCl3

> <NMREDATA_TEMPERATURE>
300

> <NMREDATA_FORMULA>
C54H48ClO2P3Rh

> <NMREDATA_SMILES>
O=[O][Rh](P(c1ccccc1)(c1ccccc1)c1ccccc1)(P(c1ccccc1)(c1ccccc1)c1ccccc1)(P(c1ccccc1)(c1ccccc1)c1ccccc1)Cl

> <NMREDATA_ASSIGNMENT>
Rh55, 3130.00, 55

> <NMREDATA_1D_103Rh>
3130.00, L=Rh55

$$$$
