
  ACD/LABS04032413382D

 18 17  0  0  0  0  0  0  0  0  1 V2000
   14.4476  -13.9356    0.0000 C    0  0  0  0  0  0  0  0  0  0  0  0
   13.6064  -12.4784    0.0000 C    0  0  0  0  0  0  0  0  0  0  0  0
   15.5735  -12.6852    0.0000 C    0  0  0  0  0  0  0  0  0  0  0  0
   15.9847  -14.6199    0.0000 C    0  0  0  0  0  0  0  0  0  0  0  0
   14.2718  -15.6089    0.0000 C    0  0  0  0  0  0  0  0  0  0  0  0
   17.2192  -13.0350    0.0000 As   0  0  0  0  0  0  0  0  0  0  0  0
   17.3459  -13.6309    0.0000 As   0  0  0  0  0  0  0  0  0  0  0  0
   15.6330  -16.5978    0.0000 As   0  0  0  0  0  0  0  0  0  0  0  0
   18.3451  -11.7847    0.0000 C    0  0  0  0  0  0  0  0  0  0  0  0
   17.7392  -14.6352    0.0000 C    0  0  0  0  0  0  0  0  0  0  0  0
   17.1700  -11.9576    0.0000 C    0  0  0  0  0  0  0  0  0  0  0  0
   18.8830  -14.3153    0.0000 C    0  0  0  0  0  0  0  0  0  0  0  0
   17.1700  -15.9135    0.0000 C    0  0  0  0  0  0  0  0  0  0  0  0
   15.4571  -18.2712    0.0000 C    0  0  0  0  0  0  0  0  0  0  0  0
   12.8019  -14.2854    0.0000 Rh   0  0  0  0  0  0  0  0  0  0  0  0
   12.4521  -12.6396    0.0000 Br   0  0  0  0  0  0  0  0  0  0  0  0
   13.1517  -15.9311    0.0000 Br   0  0  0  0  0  0  0  0  0  0  0  0
   11.1561  -14.6352    0.0000 Br   0  0  0  0  0  0  0  0  0  0  0  0
  1  2  1  0  0  0  0
  1  3  1  0  0  0  0
  1  4  1  0  0  0  0
  1  5  1  0  0  0  0
  3  6  1  0  0  0  0
  4  7  1  0  0  0  0
  5  8  1  0  0  0  0
  6  9  1  0  0  0  0
  6 10  1  0  0  0  0
  7 11  1  0  0  0  0
  7 12  1  0  0  0  0
  8 13  1  0  0  0  0
  8 14  1  0  0  0  0
 15 16  1  0  0  0  0
 15 17  1  0  0  0  0
 15 18  1  0  0  0  0
  1 15  1  0  0  0  0
M  END
> <NMREDATA_VERSION>
1.1

> <NMREDATA_LEVEL>
0

> <NMREDATA_SOLVENT>
DMF-d7

> <NMREDATA_TEMPERATURE>
300

> <NMREDATA_FORMULA>
C11H27As3Br3Rh

> <NMREDATA_SMILES>
C[As](C[C]([Rh](Br)(Br)Br)(C[As](C)C)(C[As](C)C)C)C

> <NMREDATA_ASSIGNMENT>
Rh15, 1792.00, 15

> <NMREDATA_1D_103Rh>
1792.00, L=Rh15

$$$$
