
  ACD/LABS04032413512D

 28 26  0  0  0  0  0  0  0  0  2 V2000
   12.7071  -13.4763    0.0000 Rh   0  5  0  0  0  0  0  0  0  0  0  0
   11.4252  -12.1623    0.0000 I    0  0  0  0  0  0  0  0  0  0  0  0
   11.0246  -12.8353    0.0000 I    0  0  0  0  0  0  0  0  0  0  0  0
   14.7742  -14.3095    0.0000 I    0  0  0  0  0  0  0  0  0  0  0  0
   14.1493  -14.9665    0.0000 I    0  0  0  0  0  0  0  0  0  0  0  0
   11.3130  -14.4858    0.0000 S    0  0  0  0  0  0  0  0  0  0  0  0
   14.1653  -12.6110    0.0000 S    0  0  0  0  0  0  0  0  0  0  0  0
   11.9860  -15.7196    0.0000 C    0  0  0  0  0  0  0  0  0  0  0  0
    9.6946  -14.5819    0.0000 C    0  0  0  0  0  0  0  0  0  0  0  0
   14.9505  -12.7071    0.0000 C    0  0  0  0  0  0  0  0  0  0  0  0
   14.4057  -11.5374    0.0000 C    0  0  0  0  0  0  0  0  0  0  0  0
   20.3574  -13.3321    0.0000 N    0  3  0  0  0  0  0  0  0  0  0  0
   21.0235  -12.9475    0.0000 C    0  0  0  0  0  0  0  0  0  0  0  0
   21.0235  -12.1783    0.0000 C    0  0  0  0  0  0  0  0  0  0  0  0
   21.6896  -11.7937    0.0000 C    0  0  0  0  0  0  0  0  0  0  0  0
   21.6896  -11.0246    0.0000 C    0  0  0  0  0  0  0  0  0  0  0  0
   19.9728  -12.6659    0.0000 C    0  0  0  0  0  0  0  0  0  0  0  0
   20.3574  -11.9998    0.0000 C    0  0  0  0  0  0  0  0  0  0  0  0
   19.9728  -11.3337    0.0000 C    0  0  0  0  0  0  0  0  0  0  0  0
   20.3574  -10.6676    0.0000 C    0  0  0  0  0  0  0  0  0  0  0  0
   20.7419  -13.9982    0.0000 C    0  0  0  0  0  0  0  0  0  0  0  0
   20.3574  -14.6643    0.0000 C    0  0  0  0  0  0  0  0  0  0  0  0
   20.7419  -15.3304    0.0000 C    0  0  0  0  0  0  0  0  0  0  0  0
   20.3574  -15.9965    0.0000 C    0  0  0  0  0  0  0  0  0  0  0  0
   19.6913  -13.7166    0.0000 C    0  0  0  0  0  0  0  0  0  0  0  0
   19.0252  -13.3321    0.0000 C    0  0  0  0  0  0  0  0  0  0  0  0
   18.3590  -13.7166    0.0000 C    0  0  0  0  0  0  0  0  0  0  0  0
   17.6929  -13.3321    0.0000 C    0  0  0  0  0  0  0  0  0  0  0  0
  1  2  1  0  0  0  0
  1  3  1  0  0  0  0
  1  4  1  0  0  0  0
  1  5  1  0  0  0  0
  1  6  1  0  0  0  0
  1  7  1  0  0  0  0
  6  8  1  0  0  0  0
  6  9  1  0  0  0  0
  7 10  1  0  0  0  0
  7 11  1  0  0  0  0
 12 13  1  0  0  0  0
 13 14  1  0  0  0  0
 14 15  1  0  0  0  0
 15 16  1  0  0  0  0
 12 17  1  0  0  0  0
 17 18  1  0  0  0  0
 18 19  1  0  0  0  0
 19 20  1  0  0  0  0
 12 21  1  0  0  0  0
 21 22  1  0  0  0  0
 22 23  1  0  0  0  0
 23 24  1  0  0  0  0
 12 25  1  0  0  0  0
 25 26  1  0  0  0  0
 26 27  1  0  0  0  0
 27 28  1  0  0  0  0
M  END
> <NMREDATA_VERSION>
1.1

> <NMREDATA_LEVEL>
0

> <NMREDATA_SOLVENT>
CD2Cl2

> <NMREDATA_FORMULA>
C20H51I4NRhS2

> <NMREDATA_SMILES>
CS([Rh](S(C)C)(I)(I)(I)I)C.CCCCN(CCCC)(CCCC)CCCC

> <NMREDATA_ASSIGNMENT>
Rh1, 2958.00, 1

> <NMREDATA_1D_103Rh>
2958.00, L=Rh1

$$$$
