
  ACD/LABS03092411022D

 43 48  0  0  0  0  0  0  0  0  1 V2000
   11.8399  -15.1668    0.0000 C    0  0  0  0  0  0  0  0  0  0  0  0
   11.8399  -16.4968    0.0000 C    0  0  0  0  0  0  0  0  0  0  0  0
   10.6880  -14.5018    0.0000 C    0  0  0  0  0  0  0  0  0  0  0  0
   10.6880  -17.1618    0.0000 C    0  0  0  0  0  0  0  0  0  0  0  0
    9.5362  -15.1668    0.0000 C    0  0  0  0  0  0  0  0  0  0  0  0
    9.5362  -16.4968    0.0000 C    0  0  0  0  0  0  0  0  0  0  0  0
   14.3736  -10.1913    0.0000 Rh   0  0  0  0  0  0  0  0  0  0  0  0
   15.7036  -10.1913    0.0000 C    0  0  0  0  0  0  0  0  0  0  0  0
   17.0336  -10.1913    0.0000 N    0  0  0  0  0  0  0  0  0  0  0  0
   12.7712   -9.0376    0.0000 C    0  0  0  0  0  0  0  0  0  0  0  0
   12.6911   -7.0025    0.0000 O    0  0  0  0  0  0  0  0  0  0  0  0
   13.2840  -11.9700    0.0000 P    0  0  0  0  0  0  0  0  0  0  0  0
   11.9544  -11.9354    0.0000 C    0  0  0  0  0  0  0  0  0  0  0  0
   11.2596  -13.0695    0.0000 C    0  0  0  0  0  0  0  0  0  0  0  0
   11.3196  -10.7666    0.0000 C    0  0  0  0  0  0  0  0  0  0  0  0
    9.9300  -13.0348    0.0000 C    0  0  0  0  0  0  0  0  0  0  0  0
    9.9901  -10.7319    0.0000 C    0  0  0  0  0  0  0  0  0  0  0  0
    9.2953  -11.8660    0.0000 C    0  0  0  0  0  0  0  0  0  0  0  0
   13.9188  -13.1387    0.0000 C    0  0  0  0  0  0  0  0  0  0  0  0
   15.2483  -13.1734    0.0000 C    0  0  0  0  0  0  0  0  0  0  0  0
   13.2240  -14.2729    0.0000 C    0  0  0  0  0  0  0  0  0  0  0  0
   15.8831  -14.3422    0.0000 C    0  0  0  0  0  0  0  0  0  0  0  0
   13.8588  -15.4416    0.0000 C    0  0  0  0  0  0  0  0  0  0  0  0
   15.1883  -15.4763    0.0000 C    0  0  0  0  0  0  0  0  0  0  0  0
   17.4022   -7.6755    0.0000 P    0  0  0  0  0  0  0  0  0  0  0  0
   18.6497   -8.1366    0.0000 C    0  0  0  0  0  0  0  0  0  0  0  0
   19.6728   -7.2868    0.0000 C    0  0  0  0  0  0  0  0  0  0  0  0
   18.8742   -9.4476    0.0000 C    0  0  0  0  0  0  0  0  0  0  0  0
   20.9203   -7.7480    0.0000 C    0  0  0  0  0  0  0  0  0  0  0  0
   20.1217   -9.9087    0.0000 C    0  0  0  0  0  0  0  0  0  0  0  0
   21.1448   -9.0589    0.0000 C    0  0  0  0  0  0  0  0  0  0  0  0
   17.1777   -6.3646    0.0000 C    0  0  0  0  0  0  0  0  0  0  0  0
   15.9302   -5.9035    0.0000 C    0  0  0  0  0  0  0  0  0  0  0  0
   18.2008   -5.5147    0.0000 C    0  0  0  0  0  0  0  0  0  0  0  0
   15.7058   -4.5925    0.0000 C    0  0  0  0  0  0  0  0  0  0  0  0
   17.9764   -4.2038    0.0000 C    0  0  0  0  0  0  0  0  0  0  0  0
   16.7289   -3.7427    0.0000 C    0  0  0  0  0  0  0  0  0  0  0  0
   21.6787   -4.8954    0.0000 C    0  0  0  0  0  0  0  0  0  0  0  0
   21.6787   -6.2254    0.0000 C    0  0  0  0  0  0  0  0  0  0  0  0
   20.5268   -4.2304    0.0000 C    0  0  0  0  0  0  0  0  0  0  0  0
   20.5268   -6.8904    0.0000 C    0  0  0  0  0  0  0  0  0  0  0  0
   19.3750   -4.8954    0.0000 C    0  0  0  0  0  0  0  0  0  0  0  0
   19.3750   -6.2254    0.0000 C    0  0  0  0  0  0  0  0  0  0  0  0
  1  2  1  0  0  0  0
  1  3  2  0  0  0  0
  2  4  2  0  0  0  0
  3  5  1  0  0  0  0
  4  6  1  0  0  0  0
  5  6  2  0  0  0  0
  8  9  3  0  0  0  0
  7  8  1  0  0  0  0
  7 10  2  0  0  0  0
 10 11  2  0  0  0  0
  7 12  1  0  0  0  0
 13 14  1  0  0  0  0
 13 15  2  0  0  0  0
 14 16  2  0  0  0  0
 15 17  1  0  0  0  0
 16 18  1  0  0  0  0
 17 18  2  0  0  0  0
 12 13  1  0  0  0  0
 19 20  1  0  0  0  0
 19 21  2  0  0  0  0
 20 22  2  0  0  0  0
 21 23  1  0  0  0  0
 22 24  1  0  0  0  0
 23 24  2  0  0  0  0
 12 19  1  0  0  0  0
  7 25  1  0  0  0  0
 26 27  1  0  0  0  0
 26 28  2  0  0  0  0
 27 29  2  0  0  0  0
 28 30  1  0  0  0  0
 29 31  1  0  0  0  0
 30 31  2  0  0  0  0
 25 26  1  0  0  0  0
 32 33  1  0  0  0  0
 32 34  2  0  0  0  0
 33 35  2  0  0  0  0
 34 36  1  0  0  0  0
 35 37  1  0  0  0  0
 36 37  2  0  0  0  0
 25 32  1  0  0  0  0
  1 12  1  0  0  0  0
 38 39  1  0  0  0  0
 38 40  2  0  0  0  0
 39 41  2  0  0  0  0
 40 42  1  0  0  0  0
 41 43  1  0  0  0  0
 42 43  2  0  0  0  0
 25 43  1  0  0  0  0
M  END
> <NMREDATA_VERSION>
1.1

> <NMREDATA_LEVEL>
0

> <NMREDATA_SOLVENT>
DCCl3

> <NMREDATA_TEMPERATURE>
247

> <NMREDATA_FORMULA>
C38H32NOP2Rh

> <NMREDATA_SMILES>
O=C=[Rh](P(c1ccccc1)(c1ccccc1)c1ccccc1)(P(c1ccccc1)(c1ccccc1)c1ccccc1)C#N

> <NMREDATA_ASSIGNMENT>
Rh7, -787.00, 7

> <NMREDATA_1D_103Rh>
-787.00, L=Rh7

$$$$
