
  ACD/LABS02072411552D

 14 13  0  0  0  0  0  0  0  0  2 V2000
   22.3055  -23.8919    0.0000 N    0  0  0  0  0  0  0  0  0  0  0  0
   21.2319  -25.7515    0.0000 C    0  0  0  0  0  0  0  0  0  0  0  0
   23.3792  -22.0324    0.0000 Rh   0  3  0  0  0  0  0  0  0  0  0  0
   22.3055  -20.1728    0.0000 Cl   0  0  0  0  0  0  0  0  0  0  0  0
   25.5264  -22.0324    0.0000 C    0  0  0  0  0  0  0  0  0  0  0  0
   26.6000  -23.8919    0.0000 C    0  5  0  0  0  0  0  0  0  0  0  0
   28.7472  -23.8919    0.0000 C    0  0  0  0  0  0  0  0  0  0  0  0
   28.7472  -21.7447    0.0000 C    0  0  0  0  0  0  0  0  0  0  0  0
   28.7472  -26.0392    0.0000 C    0  0  0  0  0  0  0  0  0  0  0  0
   30.8945  -23.8919    0.0000 C    0  0  0  0  0  0  0  0  0  0  0  0
   31.9681  -22.0324    0.0000 N    0  0  0  0  0  0  0  0  0  0  0  0
   30.8945  -20.1728    0.0000 C    0  0  0  0  0  0  0  0  0  0  0  0
   34.1153  -22.0324    0.0000 C    0  0  0  0  0  0  0  0  0  0  0  0
   20.1583  -27.6110    0.0000 C    0  0  0  0  0  0  0  0  0  0  0  0
  1  2  3  0  0  0  0
  3  4  1  0  0  0  0
  3  5  1  0  0  0  0
  5  6  1  0  0  0  0
  6  7  1  0  0  0  0
  7  8  1  0  0  0  0
  7  9  1  0  0  0  0
  7 10  1  0  0  0  0
 10 11  1  0  0  0  0
 11 12  1  0  0  0  0
 11 13  1  0  0  0  0
  1  3  1  0  0  0  0
  2 14  1  0  0  0  0
M  END
> <NMREDATA_VERSION>
1.1

> <NMREDATA_LEVEL>
0

> <NMREDATA_SOLVENT>
CD3CN

> <NMREDATA_TEMPERATURE>
298

> <NMREDATA_FORMULA>
C10H22ClN2Rh

> <NMREDATA_SMILES>
CC#N[Rh](CCC(CN(C)C)(C)C)Cl

> <NMREDATA_ASSIGNMENT>
Rh3, 1696.00, 3

> <NMREDATA_1D_103Rh>
1696.00, L=Rh3

$$$$
