
  ACD/LABS04042409572D

 32 32  0  0  0  0  0  0  0  0  2 V2000
   15.1268  -10.8002    0.0000 Rh   0  5  0  0  0  0  0  0  0  0  0  0
   13.6846   -9.3421    0.0000 I    0  0  0  0  0  0  0  0  0  0  0  0
   16.5208  -12.1142    0.0000 I    0  0  0  0  0  0  0  0  0  0  0  0
   16.8894   -9.6946    0.0000 Sb   0  3  0  0  0  0  0  0  0  0  0  0
   13.2039  -12.2264    0.0000 Sb   0  3  0  0  0  0  0  0  0  0  0  0
   18.7019  -10.6543    0.0000 C    0  0  0  0  0  0  0  0  0  0  0  0
   16.8143   -7.6451    0.0000 C    0  0  0  0  0  0  0  0  0  0  0  0
   14.1493  -13.6686    0.0000 C    0  0  0  0  0  0  0  0  0  0  0  0
   11.6014  -12.0982    0.0000 C    0  0  0  0  0  0  0  0  0  0  0  0
   18.6268   -8.6048    0.0000 C    0  0  0  0  0  0  0  0  0  0  0  0
   18.5517   -6.5553    0.0000 C    0  0  0  0  0  0  0  0  0  0  0  0
   20.4394   -9.5645    0.0000 C    0  0  0  0  0  0  0  0  0  0  0  0
   20.2893   -5.4655    0.0000 C    0  0  0  0  0  0  0  0  0  0  0  0
   22.1768   -8.4747    0.0000 C    0  0  0  0  0  0  0  0  0  0  0  0
   22.1017   -6.4252    0.0000 C    0  0  0  0  0  0  0  0  0  0  0  0
   12.6387  -10.2549    0.0000 C    0  0  0  0  0  0  0  0  0  0  0  0
   10.6488   -9.7585    0.0000 C    0  0  0  0  0  0  0  0  0  0  0  0
   14.0636   -8.7796    0.0000 C    0  0  0  0  0  0  0  0  0  0  0  0
   10.0838   -7.7869    0.0000 C    0  0  0  0  0  0  0  0  0  0  0  0
   13.4985   -6.8082    0.0000 C    0  0  0  0  0  0  0  0  0  0  0  0
   11.5086   -6.3118    0.0000 C    0  0  0  0  0  0  0  0  0  0  0  0
    9.0696  -11.0406    0.0000 Sb   0  0  0  0  0  0  0  0  0  0  0  0
   21.4563  -11.2329    0.0000 Sb   0  0  0  0  0  0  0  0  0  0  0  0
    7.3551  -10.6721    0.0000 C    0  0  0  0  0  0  0  0  0  0  0  0
    8.8774  -12.4187    0.0000 C    0  0  0  0  0  0  0  0  0  0  0  0
   21.6486  -12.4347    0.0000 C    0  0  0  0  0  0  0  0  0  0  0  0
   22.8824  -11.4252    0.0000 C    0  0  0  0  0  0  0  0  0  0  0  0
   28.8754  -10.0711    0.0000 B    0  5  0  0  0  0  0  0  0  0  0  0
   28.8754   -8.5328    0.0000 F    0  0  0  0  0  0  0  0  0  0  0  0
   30.4137  -10.0711    0.0000 F    0  0  0  0  0  0  0  0  0  0  0  0
   27.3371  -10.0711    0.0000 F    0  0  0  0  0  0  0  0  0  0  0  0
   28.8754  -11.6095    0.0000 F    0  0  0  0  0  0  0  0  0  0  0  0
  1  2  1  0  0  0  0
  1  3  1  0  0  0  0
  1  4  1  0  0  0  0
  1  5  1  0  0  0  0
  4  6  1  0  0  0  0
  4  7  1  0  0  0  0
  5  8  1  0  0  0  0
  5  9  1  0  0  0  0
 10 11  1  0  0  0  0
 10 12  2  0  0  0  0
 11 13  2  0  0  0  0
 12 14  1  0  0  0  0
 13 15  1  0  0  0  0
 14 15  2  0  0  0  0
  4 10  1  0  0  0  0
 16 17  1  0  0  0  0
 16 18  2  0  0  0  0
 17 19  2  0  0  0  0
 18 20  1  0  0  0  0
 19 21  1  0  0  0  0
 20 21  2  0  0  0  0
  5 16  1  0  0  0  0
 17 22  1  0  0  0  0
 12 23  1  0  0  0  0
 22 24  1  0  0  0  0
 22 25  1  0  0  0  0
 23 26  1  0  0  0  0
 23 27  1  0  0  0  0
 28 29  1  0  0  0  0
 28 30  1  0  0  0  0
 28 31  1  0  0  0  0
 28 32  1  0  0  0  0
M  END
> <NMREDATA_VERSION>
1.1

> <NMREDATA_LEVEL>
0

> <NMREDATA_SOLVENT>
CD2Cl2

> <NMREDATA_TEMPERATURE>
300

> <NMREDATA_FORMULA>
C20H34BF4I2RhSb4

> <NMREDATA_SMILES>
F[B](F)(F)F.C[Sb](c1ccccc1[SbH]([Rh]([SbH](c1ccccc1[Sb](C)C)(C)C)(I)I)(C)C)C

> <NMREDATA_ASSIGNMENT>
Rh1, 1131.00, 1

> <NMREDATA_1D_103Rh>
1131.00, L=Rh1

$$$$
