
  ACD/LABS04022410182D

 61 69  0  0  0  0  0  0  0  0  1 V2000
   16.3341  -11.5024    0.0000 C    0  0  0  0  0  0  0  0  0  0  0  0
   15.3126  -12.3583    0.0000 C    0  0  0  0  0  0  0  0  0  0  0  0
   17.5810  -11.9601    0.0000 C    0  0  0  0  0  0  0  0  0  0  0  0
   15.5462  -13.6671    0.0000 C    0  0  0  0  0  0  0  0  0  0  0  0
   17.8146  -13.2688    0.0000 C    0  0  0  0  0  0  0  0  0  0  0  0
   16.7933  -14.1245    0.0000 C    0  0  0  0  0  0  0  0  0  0  0  0
   11.0126  -14.5748    0.0000 C    0  0  0  0  0  0  0  0  0  0  0  0
   12.2563  -14.1229    0.0000 C    0  0  0  0  0  0  0  0  0  0  0  0
   10.7852  -15.8836    0.0000 C    0  0  0  0  0  0  0  0  0  0  0  0
   13.2732  -14.9794    0.0000 C    0  0  0  0  0  0  0  0  0  0  0  0
   11.8022  -16.7401    0.0000 C    0  0  0  0  0  0  0  0  0  0  0  0
   13.0458  -16.2882    0.0000 C    0  0  0  0  0  0  0  0  0  0  0  0
   14.5214  -12.2112    0.0000 C    0  0  0  0  0  0  0  0  0  0  0  0
   13.8555  -13.3633    0.0000 C    0  0  0  0  0  0  0  0  0  0  0  0
   13.8562  -11.0591    0.0000 C    0  0  0  0  0  0  0  0  0  0  0  0
   12.5248  -13.3639    0.0000 C    0  0  0  0  0  0  0  0  0  0  0  0
   12.5255  -11.0597    0.0000 C    0  0  0  0  0  0  0  0  0  0  0  0
   11.8596  -12.2118    0.0000 C    0  0  0  0  0  0  0  0  0  0  0  0
   15.1857  -15.6673    0.0000 Rh   0  0  0  0  0  0  0  0  0  0  0  0
   15.8514  -14.5149    0.0000 Br   0  0  0  0  0  0  0  0  0  0  0  0
   13.8548  -15.6676    0.0000 Br   0  0  0  0  0  0  0  0  0  0  0  0
   16.5164  -15.6667    0.0000 Br   0  0  0  0  0  0  0  0  0  0  0  0
   14.5207  -14.5155    0.0000 P    0  0  0  0  0  0  0  0  0  0  0  0
   12.1702  -20.8892    0.0000 P    0  0  0  0  0  0  0  0  0  0  0  0
   16.6307  -18.1702    0.0000 P    0  0  0  0  0  0  0  0  0  0  0  0
   15.2313  -23.4426    0.0000 C    0  0  0  0  0  0  0  0  0  0  0  0
   15.4587  -22.1338    0.0000 C    0  0  0  0  0  0  0  0  0  0  0  0
   13.9840  -23.9068    0.0000 C    0  0  0  0  0  0  0  0  0  0  0  0
   14.4421  -21.2771    0.0000 C    0  0  0  0  0  0  0  0  0  0  0  0
   12.9674  -23.0501    0.0000 C    0  0  0  0  0  0  0  0  0  0  0  0
   13.1945  -21.7415    0.0000 C    0  0  0  0  0  0  0  0  0  0  0  0
    9.1167  -18.3315    0.0000 C    0  0  0  0  0  0  0  0  0  0  0  0
    8.8817  -19.6447    0.0000 C    0  0  0  0  0  0  0  0  0  0  0  0
   10.3608  -17.8793    0.0000 C    0  0  0  0  0  0  0  0  0  0  0  0
    9.9013  -20.4889    0.0000 C    0  0  0  0  0  0  0  0  0  0  0  0
   11.3851  -18.7316    0.0000 C    0  0  0  0  0  0  0  0  0  0  0  0
   11.1534  -20.0322    0.0000 C    0  0  0  0  0  0  0  0  0  0  0  0
    9.6124  -23.9427    0.0000 C    0  0  0  0  0  0  0  0  0  0  0  0
   10.9253  -24.1779    0.0000 C    0  0  0  0  0  0  0  0  0  0  0  0
    9.1526  -22.7031    0.0000 C    0  0  0  0  0  0  0  0  0  0  0  0
   11.7777  -23.1531    0.0000 C    0  0  0  0  0  0  0  0  0  0  0  0
   10.0047  -21.6784    0.0000 C    0  0  0  0  0  0  0  0  0  0  0  0
   11.3135  -21.9058    0.0000 C    0  0  0  0  0  0  0  0  0  0  0  0
   18.1100  -16.4051    0.0000 C    0  0  0  0  0  0  0  0  0  0  0  0
   19.3617  -15.9486    0.0000 C    0  0  0  0  0  0  0  0  0  0  0  0
   17.8826  -17.7140    0.0000 C    0  0  0  0  0  0  0  0  0  0  0  0
   20.3783  -16.8053    0.0000 C    0  0  0  0  0  0  0  0  0  0  0  0
   18.8992  -18.5707    0.0000 C    0  0  0  0  0  0  0  0  0  0  0  0
   20.1513  -18.1139    0.0000 C    0  0  0  0  0  0  0  0  0  0  0  0
   15.1561  -19.9432    0.0000 C    0  0  0  0  0  0  0  0  0  0  0  0
   13.9124  -20.3951    0.0000 C    0  0  0  0  0  0  0  0  0  0  0  0
   15.3835  -18.6344    0.0000 C    0  0  0  0  0  0  0  0  0  0  0  0
   12.8954  -19.5386    0.0000 C    0  0  0  0  0  0  0  0  0  0  0  0
   14.3665  -17.7779    0.0000 C    0  0  0  0  0  0  0  0  0  0  0  0
   13.1229  -18.2298    0.0000 C    0  0  0  0  0  0  0  0  0  0  0  0
   18.3963  -19.6496    0.0000 C    0  0  0  0  0  0  0  0  0  0  0  0
   18.8602  -20.8971    0.0000 C    0  0  0  0  0  0  0  0  0  0  0  0
   17.0875  -19.4222    0.0000 C    0  0  0  0  0  0  0  0  0  0  0  0
   18.0079  -21.9214    0.0000 C    0  0  0  0  0  0  0  0  0  0  0  0
   16.2349  -20.4467    0.0000 C    0  0  0  0  0  0  0  0  0  0  0  0
   16.6947  -21.6863    0.0000 C    0  0  0  0  0  0  0  0  0  0  0  0
  1  2  1  0  0  0  0
  1  3  2  0  0  0  0
  2  4  2  0  0  0  0
  3  5  1  0  0  0  0
  4  6  1  0  0  0  0
  5  6  2  0  0  0  0
  7  8  1  0  0  0  0
  7  9  2  0  0  0  0
  8 10  2  0  0  0  0
  9 11  1  0  0  0  0
 10 12  1  0  0  0  0
 11 12  2  0  0  0  0
 13 14  1  0  0  0  0
 13 15  2  0  0  0  0
 14 16  2  0  0  0  0
 15 17  1  0  0  0  0
 16 18  1  0  0  0  0
 17 18  2  0  0  0  0
 19 20  1  0  0  0  0
 19 21  1  0  0  0  0
 19 22  1  0  0  0  0
 19 23  1  0  0  0  0
 19 24  1  0  0  0  0
 19 25  1  0  0  0  0
 14 23  1  0  0  0  0
 10 23  1  0  0  0  0
  4 23  1  0  0  0  0
 26 27  1  0  0  0  0
 26 28  2  0  0  0  0
 27 29  2  0  0  0  0
 28 30  1  0  0  0  0
 29 31  1  0  0  0  0
 30 31  2  0  0  0  0
 24 31  1  0  0  0  0
 32 33  1  0  0  0  0
 32 34  2  0  0  0  0
 33 35  2  0  0  0  0
 34 36  1  0  0  0  0
 35 37  1  0  0  0  0
 36 37  2  0  0  0  0
 24 37  1  0  0  0  0
 38 39  1  0  0  0  0
 38 40  2  0  0  0  0
 39 41  2  0  0  0  0
 40 42  1  0  0  0  0
 41 43  1  0  0  0  0
 42 43  2  0  0  0  0
 24 43  1  0  0  0  0
 44 45  1  0  0  0  0
 44 46  2  0  0  0  0
 45 47  2  0  0  0  0
 46 48  1  0  0  0  0
 47 49  1  0  0  0  0
 48 49  2  0  0  0  0
 25 46  1  0  0  0  0
 50 51  1  0  0  0  0
 50 52  2  0  0  0  0
 51 53  2  0  0  0  0
 52 54  1  0  0  0  0
 53 55  1  0  0  0  0
 54 55  2  0  0  0  0
 25 52  1  0  0  0  0
 56 57  1  0  0  0  0
 56 58  2  0  0  0  0
 57 59  2  0  0  0  0
 58 60  1  0  0  0  0
 59 61  1  0  0  0  0
 60 61  2  0  0  0  0
 25 58  1  0  0  0  0
M  END
> <NMREDATA_VERSION>
1.1

> <NMREDATA_LEVEL>
0

> <NMREDATA_SOLVENT>
CD2Cl2

> <NMREDATA_TEMPERATURE>
305

> <NMREDATA_FORMULA>
C54H48Br3P3Rh

> <NMREDATA_SMILES>
Br[Rh](P(c1ccccc1)(c1ccccc1)c1ccccc1)(P(c1ccccc1)(c1ccccc1)c1ccccc1)(P(c1ccccc1)(c1ccccc1)c1ccccc1)(Br)Br

> <NMREDATA_ASSIGNMENT>
Rh19, 2334.00, 19

> <NMREDATA_1D_103Rh>
2334.00, L=Rh19

$$$$
