
  ACD/LABS03312417342D

 24 24  0  0  0  0  0  0  0  0  1 V2000
   12.9506  -14.5411    0.0000 C    0  0  0  0  0  0  0  0  0  0  0  0
   15.5949  -14.7757    0.0000 C    0  0  0  0  0  0  0  0  0  0  0  0
   12.2807  -13.5764    0.0000 C    0  0  0  0  0  0  0  0  0  0  0  0
   13.5908  -11.3044    0.0000 C    0  0  0  0  0  0  0  0  0  0  0  0
   10.9226  -13.6538    0.0000 C    0  0  0  0  0  0  0  0  0  0  0  0
   12.2262  -15.9117    0.0000 C    0  0  0  0  0  0  0  0  0  0  0  0
   14.2855  -13.2175    0.0000 Rh   0  0  0  0  0  0  0  0  0  0  0  0
   16.7889  -11.7721    0.0000 Si   0  0  0  0  0  0  0  0  0  0  0  0
   15.4335  -13.8756    0.0000 H    0  0  0  0  0  0  0  0  0  0  0  0
   14.2820  -11.8985    0.0000 H    0  0  0  0  0  0  0  0  0  0  0  0
   14.2814  -14.5408    0.0000 P    0  0  0  0  0  0  0  0  0  0  0  0
   13.1299  -12.5637    0.0000 P    0  0  0  0  0  0  0  0  0  0  0  0
   11.7739  -14.6675    0.0000 P    0  0  0  0  0  0  0  0  0  0  0  0
   17.4538  -12.9239    0.0000 C    0  0  0  0  0  0  0  0  0  0  0  0
   18.7731  -12.9203    0.0000 C    0  0  0  0  0  0  0  0  0  0  0  0
   16.7838  -14.0688    0.0000 C    0  0  0  0  0  0  0  0  0  0  0  0
   19.4383  -14.0724    0.0000 C    0  0  0  0  0  0  0  0  0  0  0  0
   17.4490  -15.2209    0.0000 C    0  0  0  0  0  0  0  0  0  0  0  0
   18.7798  -15.2206    0.0000 C    0  0  0  0  0  0  0  0  0  0  0  0
   14.2817  -15.8716    0.0000 C    0  0  0  0  0  0  0  0  0  0  0  0
   11.9775  -11.8980    0.0000 C    0  0  0  0  0  0  0  0  0  0  0  0
   10.6218  -15.3327    0.0000 C    0  0  0  0  0  0  0  0  0  0  0  0
   17.9410  -11.1070    0.0000 C    0  0  0  0  0  0  0  0  0  0  0  0
   16.1164  -10.6247    0.0000 C    0  0  0  0  0  0  0  0  0  0  0  0
  7  8  1  0  0  0  0
  7  9  1  0  0  0  0
  7 10  1  0  0  0  0
  7 11  1  0  0  0  0
  7 12  1  0  0  0  0
  7 13  1  0  0  0  0
  6 13  1  0  0  0  0
  5 13  1  0  0  0  0
  4 12  1  0  0  0  0
  3 12  1  0  0  0  0
  2 11  1  0  0  0  0
  1 11  1  0  0  0  0
 14 15  1  0  0  0  0
 14 16  2  0  0  0  0
 15 17  2  0  0  0  0
 16 18  1  0  0  0  0
 17 19  1  0  0  0  0
 18 19  2  0  0  0  0
  8 14  1  0  0  0  0
 11 20  1  0  0  0  0
 12 21  1  0  0  0  0
 13 22  1  0  0  0  0
  8 23  1  0  0  0  0
  8 24  1  0  0  0  0
M  END
> <NMREDATA_VERSION>
1.1

> <NMREDATA_LEVEL>
0

> <NMREDATA_SOLVENT>
C6D6

> <NMREDATA_TEMPERATURE>
293

> <NMREDATA_FORMULA>
C17H43P3RhSi

> <NMREDATA_SMILES>
C[Si]([RhH2](P(C)(C)C)(P(C)(C)C)P(C)(C)C)(c1ccccc1)C

> <NMREDATA_ASSIGNMENT>
Rh7, -1108.00, 7

> <NMREDATA_1D_103Rh>
-1108.00, L=Rh7

$$$$
