
  ACD/LABS02232410542D

 53 59  0  0  0  0  0  0  0  0  2 V2000
   24.0201   -9.0296    0.0000 P    0  5  0  0  0  0  0  0  0  0  0  0
   24.0201   -7.4592    0.0000 F    0  0  0  0  0  0  0  0  0  0  0  0
   25.3801   -8.2444    0.0000 F    0  0  0  0  0  0  0  0  0  0  0  0
   25.3801   -9.8148    0.0000 F    0  0  0  0  0  0  0  0  0  0  0  0
   22.6602   -9.8148    0.0000 F    0  0  0  0  0  0  0  0  0  0  0  0
   22.6602   -8.2444    0.0000 F    0  0  0  0  0  0  0  0  0  0  0  0
   24.0201  -10.5999    0.0000 F    0  0  0  0  0  0  0  0  0  0  0  0
    8.1116   -5.3500    0.0000 C    0  0  0  0  0  0  0  0  0  0  0  0
    8.2310   -4.0322    0.0000 C    0  0  0  0  0  0  0  0  0  0  0  0
   10.8036   -4.6046    0.0000 C    0  0  0  0  0  0  0  0  0  0  0  0
   12.8378   -2.8978    0.0000 C    0  0  0  0  0  0  0  0  0  0  0  0
   13.6857   -3.9233    0.0000 C    0  0  0  0  0  0  0  0  0  0  0  0
   10.6884   -5.9303    0.0000 C    0  0  0  0  0  0  0  0  0  0  0  0
   11.8757   -7.0467    0.0000 C    0  0  0  0  0  0  0  0  0  0  0  0
   10.9131   -7.2235    0.0000 C    0  0  0  0  0  0  0  0  0  0  0  0
    9.7609   -6.5579    0.0000 C    0  0  0  0  0  0  0  0  0  0  0  0
   10.9088   -8.5461    0.0000 C    0  0  0  0  0  0  0  0  0  0  0  0
    8.6094   -7.2227    0.0000 C    0  0  0  0  0  0  0  0  0  0  0  0
    9.7573   -9.2109    0.0000 C    0  0  0  0  0  0  0  0  0  0  0  0
    8.6098   -8.5533    0.0000 C    0  0  0  0  0  0  0  0  0  0  0  0
   13.0776  -10.0685    0.0000 C    0  0  0  0  0  0  0  0  0  0  0  0
   14.3249   -9.6042    0.0000 C    0  0  0  0  0  0  0  0  0  0  0  0
   12.8503  -11.3768    0.0000 C    0  0  0  0  0  0  0  0  0  0  0  0
   15.3492  -10.4561    0.0000 C    0  0  0  0  0  0  0  0  0  0  0  0
   13.8747  -12.2291    0.0000 C    0  0  0  0  0  0  0  0  0  0  0  0
   15.1218  -11.7649    0.0000 C    0  0  0  0  0  0  0  0  0  0  0  0
   12.7267   -8.0596    0.0000 Rh   0  3  0  0  0  0  0  0  0  0  0  0
   15.2338   -6.6225    0.0000 P    0  0  0  0  0  0  0  0  0  0  0  0
   12.0610   -9.2118    0.0000 P    0  0  0  0  0  0  0  0  0  0  0  0
   17.7779   -9.6991    0.0000 C    0  0  0  0  0  0  0  0  0  0  0  0
   16.4649   -9.9247    0.0000 C    0  0  0  0  0  0  0  0  0  0  0  0
   18.2355   -8.4522    0.0000 C    0  0  0  0  0  0  0  0  0  0  0  0
   15.6167   -8.8994    0.0000 C    0  0  0  0  0  0  0  0  0  0  0  0
   17.3916   -7.4344    0.0000 C    0  0  0  0  0  0  0  0  0  0  0  0
   16.0819   -7.6478    0.0000 C    0  0  0  0  0  0  0  0  0  0  0  0
   14.9859   -3.2137    0.0000 C    0  0  0  0  0  0  0  0  0  0  0  0
   13.6806   -2.9743    0.0000 C    0  0  0  0  0  0  0  0  0  0  0  0
   15.4423   -4.4652    0.0000 C    0  0  0  0  0  0  0  0  0  0  0  0
   12.8238   -3.9909    0.0000 C    0  0  0  0  0  0  0  0  0  0  0  0
   14.5812   -5.4743    0.0000 C    0  0  0  0  0  0  0  0  0  0  0  0
   13.2729   -5.2470    0.0000 C    0  0  0  0  0  0  0  0  0  0  0  0
   16.3900   -5.9653    0.0000 C    0  0  0  0  0  0  0  0  0  0  0  0
   17.5345   -6.6355    0.0000 C    0  0  0  0  0  0  0  0  0  0  0  0
   16.3986   -4.6502    0.0000 C    0  0  0  0  0  0  0  0  0  0  0  0
   18.6906   -5.9780    0.0000 C    0  0  0  0  0  0  0  0  0  0  0  0
   17.5504   -3.9852    0.0000 C    0  0  0  0  0  0  0  0  0  0  0  0
   18.7021   -4.6507    0.0000 C    0  0  0  0  0  0  0  0  0  0  0  0
   11.3953  -10.3640    0.0000 C    0  0  0  0  0  0  0  0  0  0  0  0
   12.0603  -11.5158    0.0000 C    0  0  0  0  0  0  0  0  0  0  0  0
   10.0646  -10.3644    0.0000 C    0  0  0  0  0  0  0  0  0  0  0  0
   11.3946  -12.6680    0.0000 C    0  0  0  0  0  0  0  0  0  0  0  0
    9.3993  -11.5164    0.0000 C    0  0  0  0  0  0  0  0  0  0  0  0
   10.0643  -12.6682    0.0000 C    0  0  0  0  0  0  0  0  0  0  0  0
  1  2  1  0  0  0  0
  1  3  1  0  0  0  0
  1  4  1  0  0  0  0
  1  5  1  0  0  0  0
  1  6  1  0  0  0  0
  1  7  1  0  0  0  0
  8  9  2  0  0  0  0
  9 10  1  0  0  0  0
 10 11  1  0  0  0  0
 11 12  2  0  0  0  0
  8 13  1  0  0  0  0
 13 12  1  0  0  0  0
 13 14  1  0  0  0  0
 14 10  1  0  0  0  0
 15 16  1  0  0  0  0
 15 17  2  0  0  0  0
 16 18  2  0  0  0  0
 17 19  1  0  0  0  0
 18 20  1  0  0  0  0
 19 20  2  0  0  0  0
 21 22  1  0  0  0  0
 21 23  2  0  0  0  0
 22 24  2  0  0  0  0
 23 25  1  0  0  0  0
 24 26  1  0  0  0  0
 25 26  2  0  0  0  0
 27 28  1  0  0  0  0
 27 29  1  0  0  0  0
 21 29  1  0  0  0  0
 17 29  1  0  0  0  0
 30 31  1  0  0  0  0
 30 32  2  0  0  0  0
 31 33  2  0  0  0  0
 32 34  1  0  0  0  0
 33 35  1  0  0  0  0
 34 35  2  0  0  0  0
 28 35  1  0  0  0  0
 36 37  1  0  0  0  0
 36 38  2  0  0  0  0
 37 39  2  0  0  0  0
 38 40  1  0  0  0  0
 39 41  1  0  0  0  0
 40 41  2  0  0  0  0
 28 40  1  0  0  0  0
 42 43  1  0  0  0  0
 42 44  2  0  0  0  0
 43 45  2  0  0  0  0
 44 46  1  0  0  0  0
 45 47  1  0  0  0  0
 46 47  2  0  0  0  0
 28 42  1  0  0  0  0
 48 49  1  0  0  0  0
 48 50  2  0  0  0  0
 49 51  2  0  0  0  0
 50 52  1  0  0  0  0
 51 53  1  0  0  0  0
 52 53  2  0  0  0  0
 29 48  1  0  0  0  0
 14 27  1  0  0  0  0
M  END
> <NMREDATA_VERSION>
1.1

> <NMREDATA_LEVEL>
0

> <NMREDATA_SOLVENT>
DCCl3

> <NMREDATA_TEMPERATURE>
298

> <NMREDATA_FORMULA>
C43H39F6P3Rh

> <NMREDATA_SMILES>
C1=CC2C(C1C=C2)[Rh](P(c1ccccc1)(c1ccccc1)c1ccccc1)P(c1ccccc1)(c1ccccc1)c1ccccc1.F[P](F)(F)(F)(F)F

> <NMREDATA_ASSIGNMENT>
Rh27, -4.00, 27

> <NMREDATA_1D_103Rh>
-4.00, L=Rh27

$$$$
