
  ACD/LABS03242412422D

 21 21  0  0  0  0  0  0  0  0  1 V2000
   13.8817   -9.0304    0.0000 Rh   0  0  0  0  0  0  0  0  0  0  0  0
   12.0082   -7.9487    0.0000 Cl   0  0  0  0  0  0  0  0  0  0  0  0
   15.7551  -10.1120    0.0000 Cl   0  0  0  0  0  0  0  0  0  0  0  0
   14.9633   -7.1569    0.0000 C    0  0  0  0  0  0  0  0  0  0  0  0
   13.8817   -5.2835    0.0000 Cl   0  0  0  0  0  0  0  0  0  0  0  0
   12.8000  -10.9038    0.0000 N    0  0  0  0  0  0  0  0  0  0  0  0
   13.8817  -12.7772    0.0000 C    0  0  0  0  0  0  0  0  0  0  0  0
   10.6368  -10.9038    0.0000 C    0  0  0  0  0  0  0  0  0  0  0  0
   12.8000  -14.6507    0.0000 C    0  0  0  0  0  0  0  0  0  0  0  0
    9.5551  -12.7772    0.0000 C    0  0  0  0  0  0  0  0  0  0  0  0
   10.6368  -14.6507    0.0000 C    0  0  0  0  0  0  0  0  0  0  0  0
   16.0449  -12.7772    0.0000 C    0  0  0  0  0  0  0  0  0  0  0  0
    9.5551   -9.0304    0.0000 C    0  0  0  0  0  0  0  0  0  0  0  0
   17.1265  -10.9038    0.0000 N    0  0  0  0  0  0  0  0  0  0  0  0
   10.6368   -7.1569    0.0000 N    0  0  0  0  0  0  0  0  0  0  0  0
   19.2898  -10.9038    0.0000 C    0  0  0  0  0  0  0  0  0  0  0  0
   20.3714   -9.0304    0.0000 C    0  0  0  0  0  0  0  0  0  0  0  0
   20.3714  -12.7772    0.0000 C    0  0  0  0  0  0  0  0  0  0  0  0
    9.5551   -5.2835    0.0000 C    0  0  0  0  0  0  0  0  0  0  0  0
    7.3919   -5.2835    0.0000 C    0  0  0  0  0  0  0  0  0  0  0  0
   10.6368   -3.4101    0.0000 C    0  0  0  0  0  0  0  0  0  0  0  0
  1  2  1  0  0  0  0
  1  3  1  0  0  0  0
  1  4  1  0  0  0  0
  4  5  1  0  0  0  0
  6  7  1  0  0  0  0
  6  8  2  0  0  0  0
  7  9  2  0  0  0  0
  8 10  1  0  0  0  0
  9 11  1  0  0  0  0
 10 11  2  0  0  0  0
  1  6  1  0  0  0  0
  7 12  1  0  0  0  0
  8 13  1  0  0  0  0
 12 14  2  0  0  0  0
 13 15  2  0  0  0  0
 16 17  1  0  0  0  0
 16 18  1  0  0  0  0
 14 16  1  0  0  0  0
 19 20  1  0  0  0  0
 19 21  1  0  0  0  0
 15 19  1  0  0  0  0
M  END
> <NMREDATA_VERSION>
1.1

> <NMREDATA_LEVEL>
0

> <NMREDATA_SOLVENT>
CD2Cl2

> <NMREDATA_TEMPERATURE>
298

> <NMREDATA_FORMULA>
C14H22Cl3N3Rh

> <NMREDATA_SMILES>
ClC[Rh](N1=C(C=CC=C1/C=N/C(C)C)/C=N/C(C)C)(Cl)Cl

> <NMREDATA_ASSIGNMENT>
Rh1, 3570.00, 1

> <NMREDATA_1D_103Rh>
3570.00, L=Rh1

$$$$
