
  ACD/LABS03212412542D

 31 33  0  0  0  0  0  0  0  0  1 V2000
   12.0001  -11.7667    0.0000 Rh   0  0  0  0  0  0  0  0  0  0  0  0
   12.0001  -13.0967    0.0000 I    0  0  0  0  0  0  0  0  0  0  0  0
   12.0001  -10.4458    0.0000 C    0  0  0  0  0  0  0  0  0  0  0  0
   13.0198   -9.5855    0.0000 O    0  0  0  0  0  0  0  0  0  0  0  0
   10.6875  -11.9882    0.0000 P    0  0  0  0  0  0  0  0  0  0  0  0
   14.8906  -11.7667    0.0000 B    0  0  0  0  0  0  0  0  0  0  0  0
   14.8906  -13.0967    0.0000 N    0  0  0  0  0  0  0  0  0  0  0  0
   13.8178  -13.8770    0.0000 C    0  0  0  0  0  0  0  0  0  0  0  0
   15.9636  -13.8770    0.0000 N    0  0  0  0  0  0  0  0  0  0  0  0
   14.2346  -15.1363    0.0000 C    0  0  0  0  0  0  0  0  0  0  0  0
   15.5556  -15.1363    0.0000 C    0  0  0  0  0  0  0  0  0  0  0  0
   16.2206  -11.7667    0.0000 N    0  0  0  0  0  0  0  0  0  0  0  0
   17.0008  -10.6940    0.0000 C    0  0  0  0  0  0  0  0  0  0  0  0
   17.0008  -12.8394    0.0000 N    0  0  0  0  0  0  0  0  0  0  0  0
   18.2601  -11.1017    0.0000 C    0  0  0  0  0  0  0  0  0  0  0  0
   18.2691  -12.4227    0.0000 C    0  0  0  0  0  0  0  0  0  0  0  0
   14.8906  -10.4458    0.0000 N    0  0  0  0  0  0  0  0  0  0  0  0
   15.9636   -9.6565    0.0000 C    0  0  0  0  0  0  0  0  0  0  0  0
   13.8178   -9.6565    0.0000 N    0  0  0  0  0  0  0  0  0  0  0  0
   15.5556   -8.3972    0.0000 C    0  0  0  0  0  0  0  0  0  0  0  0
   14.2346   -8.3972    0.0000 C    0  0  0  0  0  0  0  0  0  0  0  0
   19.3419  -13.2120    0.0000 C    0  0  0  0  0  0  0  0  0  0  0  0
   19.3419  -10.3215    0.0000 C    0  0  0  0  0  0  0  0  0  0  0  0
   13.4544   -7.3154    0.0000 C    0  0  0  0  0  0  0  0  0  0  0  0
   16.3358   -7.3154    0.0000 C    0  0  0  0  0  0  0  0  0  0  0  0
   16.3358  -16.2180    0.0000 C    0  0  0  0  0  0  0  0  0  0  0  0
   13.4544  -16.2180    0.0000 C    0  0  0  0  0  0  0  0  0  0  0  0
   10.4570  -10.6940    0.0000 C    0  0  0  0  0  0  0  0  0  0  0  0
   10.9180  -13.3007    0.0000 C    0  0  0  0  0  0  0  0  0  0  0  0
    9.3753  -12.2187    0.0000 C    0  0  0  0  0  0  0  0  0  0  0  0
   10.8470   -9.7804    0.0000 C    0  0  0  0  0  0  0  0  0  0  0  0
  1  2  1  0  0  0  0
  1  3  1  0  0  0  0
  3  4  2  0  0  0  0
  1  5  1  0  0  0  0
  7  8  1  0  0  0  0
  7  9  1  0  0  0  0
  8 10  2  0  0  0  0
  9 11  2  0  0  0  0
 10 11  1  0  0  0  0
  6  7  1  0  0  0  0
 12 13  1  0  0  0  0
 12 14  1  0  0  0  0
 13 15  2  0  0  0  0
 14 16  2  0  0  0  0
 15 16  1  0  0  0  0
  6 12  1  0  0  0  0
 17 18  1  0  0  0  0
 17 19  1  0  0  0  0
 18 20  2  0  0  0  0
 19 21  2  0  0  0  0
 20 21  1  0  0  0  0
  6 17  1  0  0  0  0
 16 22  1  0  0  0  0
 15 23  1  0  0  0  0
 21 24  1  0  0  0  0
 20 25  1  0  0  0  0
 11 26  1  0  0  0  0
 10 27  1  0  0  0  0
  1  6  1  0  0  0  0
  5 28  1  0  0  0  0
  5 29  1  0  0  0  0
  5 30  1  0  0  0  0
  3 31  1  0  0  0  0
M  END
> <NMREDATA_VERSION>
1.1

> <NMREDATA_LEVEL>
0

> <NMREDATA_SOLVENT>
CD2Cl2

> <NMREDATA_TEMPERATURE>
233

> <NMREDATA_FORMULA>
C20H34BIN6OPRh

> <NMREDATA_SMILES>
Cc1nn(cc1C)[B]([Rh](P(C)(C)C)(C(=O)C)I)(n1nc(c(c1)C)C)n1nc(c(c1)C)C

> <NMREDATA_ASSIGNMENT>
Rh1, 2945.00, 1

> <NMREDATA_1D_103Rh>
2945.00, L=Rh1

$$$$
