
  ACD/LABS02062414142D

 53 61  0  0  0  0  0  0  0  0  1 V2000
   12.4046  -13.7469    0.0000 C    0  0  0  0  0  0  0  0  0  0  0  0
   13.0374  -12.5722    0.0000 C    0  0  0  0  0  0  0  0  0  0  0  0
   11.0950  -13.9803    0.0000 C    0  0  0  0  0  0  0  0  0  0  0  0
   12.5147  -11.3474    0.0000 C    0  0  0  0  0  0  0  0  0  0  0  0
   10.0965  -13.1024    0.0000 C    0  0  0  0  0  0  0  0  0  0  0  0
   10.1520  -11.7793    0.0000 C    0  0  0  0  0  0  0  0  0  0  0  0
   11.2335  -10.9910    0.0000 C    0  0  0  0  0  0  0  0  0  0  0  0
    8.9346  -11.2323    0.0000 C    0  0  0  0  0  0  0  0  0  0  0  0
    8.8032   -9.9049    0.0000 C    0  0  0  0  0  0  0  0  0  0  0  0
   11.0946   -9.6680    0.0000 C    0  0  0  0  0  0  0  0  0  0  0  0
    9.8815   -9.1285    0.0000 C    0  0  0  0  0  0  0  0  0  0  0  0
   13.0962  -14.8736    0.0000 C    0  0  0  0  0  0  0  0  0  0  0  0
   14.4252  -14.8335    0.0000 C    0  0  0  0  0  0  0  0  0  0  0  0
   14.3668  -12.5318    0.0000 C    0  0  0  0  0  0  0  0  0  0  0  0
   15.0580  -13.6588    0.0000 C    0  0  0  0  0  0  0  0  0  0  0  0
   22.9253  -13.0197    0.0000 C    0  0  0  0  0  0  0  0  0  0  0  0
   22.9646  -11.6860    0.0000 C    0  0  0  0  0  0  0  0  0  0  0  0
   21.7550  -13.6543    0.0000 C    0  0  0  0  0  0  0  0  0  0  0  0
   21.8258  -10.9913    0.0000 C    0  0  0  0  0  0  0  0  0  0  0  0
   20.6241  -12.9551    0.0000 C    0  0  0  0  0  0  0  0  0  0  0  0
   20.6556  -11.6259    0.0000 C    0  0  0  0  0  0  0  0  0  0  0  0
   21.3459  -17.0975    0.0000 C    0  0  0  0  0  0  0  0  0  0  0  0
   22.0449  -15.9662    0.0000 C    0  0  0  0  0  0  0  0  0  0  0  0
   20.0161  -17.0659    0.0000 C    0  0  0  0  0  0  0  0  0  0  0  0
   21.4104  -14.7960    0.0000 C    0  0  0  0  0  0  0  0  0  0  0  0
   19.3815  -15.8957    0.0000 C    0  0  0  0  0  0  0  0  0  0  0  0
   20.0808  -14.7648    0.0000 C    0  0  0  0  0  0  0  0  0  0  0  0
   15.9857  -14.1476    0.0000 C    0  0  0  0  0  0  0  0  0  0  0  0
   17.1481  -13.5176    0.0000 C    0  0  0  0  0  0  0  0  0  0  0  0
   15.9466  -15.4817    0.0000 C    0  0  0  0  0  0  0  0  0  0  0  0
   18.2789  -14.2168    0.0000 C    0  0  0  0  0  0  0  0  0  0  0  0
   17.0779  -16.1807    0.0000 C    0  0  0  0  0  0  0  0  0  0  0  0
   18.2481  -15.5462    0.0000 C    0  0  0  0  0  0  0  0  0  0  0  0
   18.8190  -12.4196    0.0000 Rh   0  0  0  0  0  0  0  0  0  0  0  0
   19.4535  -13.5898    0.0000 P    0  0  0  0  0  0  0  0  0  0  0  0
   19.5139  -11.2812    0.0000 H    0  0  0  0  0  0  0  0  0  0  0  0
   13.2021  -10.2133    0.0000 N    0  0  0  0  0  0  0  0  0  0  0  0
   13.5909   -6.7002    0.0000 C    0  0  0  0  0  0  0  0  0  0  0  0
   13.1701   -7.9575    0.0000 C    0  0  0  0  0  0  0  0  0  0  0  0
   14.8359   -6.2480    0.0000 C    0  0  0  0  0  0  0  0  0  0  0  0
   13.8968   -9.0745    0.0000 C    0  0  0  0  0  0  0  0  0  0  0  0
   15.9701   -6.9348    0.0000 C    0  0  0  0  0  0  0  0  0  0  0  0
   16.1410   -8.2604    0.0000 C    0  0  0  0  0  0  0  0  0  0  0  0
   15.2167   -9.2141    0.0000 C    0  0  0  0  0  0  0  0  0  0  0  0
   17.4321   -8.5800    0.0000 C    0  0  0  0  0  0  0  0  0  0  0  0
   17.7958   -9.8660    0.0000 C    0  0  0  0  0  0  0  0  0  0  0  0
   15.5754  -10.4925    0.0000 C    0  0  0  0  0  0  0  0  0  0  0  0
   16.8710  -10.8199    0.0000 C    0  0  0  0  0  0  0  0  0  0  0  0
   12.7084   -5.7037    0.0000 C    0  0  0  0  0  0  0  0  0  0  0  0
   11.4090   -5.9722    0.0000 C    0  0  0  0  0  0  0  0  0  0  0  0
   11.8704   -8.2262    0.0000 C    0  0  0  0  0  0  0  0  0  0  0  0
   10.9879   -7.2297    0.0000 C    0  0  0  0  0  0  0  0  0  0  0  0
   12.0676   -9.5262    0.0000 H    0  0  0  0  0  0  0  0  0  0  0  0
  1  3  1  0  0  0  0
  2  4  1  0  0  0  0
  3  5  2  0  0  0  0
  4  7  1  0  0  0  0
  5  6  1  0  0  0  0
  6  8  1  0  0  0  0
  6  7  2  0  0  0  0
  8  9  2  0  0  0  0
  7 10  1  0  0  0  0
  9 11  1  0  0  0  0
 10 11  2  0  0  0  0
  1 12  1  0  0  0  0
  1  2  2  0  0  0  0
 12 13  2  0  0  0  0
  2 14  1  0  0  0  0
 13 15  1  0  0  0  0
 14 15  2  0  0  0  0
 16 17  1  0  0  0  0
 16 18  2  0  0  0  0
 17 19  2  0  0  0  0
 18 20  1  0  0  0  0
 19 21  1  0  0  0  0
 20 21  2  0  0  0  0
 22 23  1  0  0  0  0
 22 24  2  0  0  0  0
 23 25  2  0  0  0  0
 24 26  1  0  0  0  0
 25 27  1  0  0  0  0
 26 27  2  0  0  0  0
 28 29  1  0  0  0  0
 28 30  2  0  0  0  0
 29 31  2  0  0  0  0
 30 32  1  0  0  0  0
 31 33  1  0  0  0  0
 32 33  2  0  0  0  0
 34 35  1  0  0  0  0
 31 35  1  0  0  0  0
 27 35  1  0  0  0  0
 20 35  1  0  0  0  0
 34 36  1  0  0  0  0
 34 37  1  0  0  0  0
 38 40  1  0  0  0  0
 39 41  1  0  0  0  0
 40 42  2  0  0  0  0
 41 44  1  0  0  0  0
 42 43  1  0  0  0  0
 43 45  1  0  0  0  0
 43 44  2  0  0  0  0
 45 46  2  0  0  0  0
 44 47  1  0  0  0  0
 46 48  1  0  0  0  0
 47 48  2  0  0  0  0
 38 49  1  0  0  0  0
 38 39  2  0  0  0  0
 49 50  2  0  0  0  0
 39 51  1  0  0  0  0
 50 52  1  0  0  0  0
 51 52  2  0  0  0  0
 37 41  1  0  0  0  0
  4 37  1  0  0  0  0
 37 53  1  0  0  0  0
M  END
> <NMREDATA_VERSION>
1.1

> <NMREDATA_LEVEL>
0

> <NMREDATA_SOLVENT>
THF

> <NMREDATA_TEMPERATURE>
298

> <NMREDATA_FORMULA>
C48H41NPRh

> <NMREDATA_SMILES>
c1ccc(cc1)P(c1ccccc1)(c1ccccc1)[RhH][NH2](C1c2ccccc2C=Cc2c1cccc2)C1c2ccccc2C=Cc2c1cccc2

> <NMREDATA_ASSIGNMENT>
Rh34, -38.00, 34

> <NMREDATA_1D_103Rh>
-38.00, L=Rh34

$$$$
