
  ACD/LABS03132411132D

104112  0  0  0  0  0  0  0  0  2 V2000
   20.1303  -14.3227    0.0000 C    0  0  0  0  0  0  0  0  0  0  0  0
   20.7953  -15.4745    0.0000 C    0  0  0  0  0  0  0  0  0  0  0  0
   18.8003  -14.3227    0.0000 C    0  0  0  0  0  0  0  0  0  0  0  0
   20.1303  -16.6263    0.0000 C    0  0  0  0  0  0  0  0  0  0  0  0
   18.1353  -15.4745    0.0000 C    0  0  0  0  0  0  0  0  0  0  0  0
   18.8003  -16.6263    0.0000 C    0  0  0  0  0  0  0  0  0  0  0  0
   20.1303  -12.0191    0.0000 C    0  0  0  0  0  0  0  0  0  0  0  0
   18.8003  -12.0191    0.0000 C    0  0  0  0  0  0  0  0  0  0  0  0
   20.7953  -10.8672    0.0000 C    0  0  0  0  0  0  0  0  0  0  0  0
   18.1353  -10.8672    0.0000 C    0  0  0  0  0  0  0  0  0  0  0  0
   20.1303   -9.7154    0.0000 C    0  0  0  0  0  0  0  0  0  0  0  0
   18.8003   -9.7154    0.0000 C    0  0  0  0  0  0  0  0  0  0  0  0
   24.7853  -13.1709    0.0000 C    0  0  0  0  0  0  0  0  0  0  0  0
   26.1153  -13.1709    0.0000 C    0  0  0  0  0  0  0  0  0  0  0  0
   24.1203  -14.3227    0.0000 C    0  0  0  0  0  0  0  0  0  0  0  0
   26.7803  -14.3227    0.0000 C    0  0  0  0  0  0  0  0  0  0  0  0
   24.7853  -15.4745    0.0000 C    0  0  0  0  0  0  0  0  0  0  0  0
   26.1153  -15.4745    0.0000 C    0  0  0  0  0  0  0  0  0  0  0  0
   24.7853  -10.8672    0.0000 C    0  0  0  0  0  0  0  0  0  0  0  0
   24.1203   -9.7154    0.0000 C    0  0  0  0  0  0  0  0  0  0  0  0
   26.1153  -10.8672    0.0000 C    0  0  0  0  0  0  0  0  0  0  0  0
   24.7853   -8.5636    0.0000 C    0  0  0  0  0  0  0  0  0  0  0  0
   26.7803   -9.7154    0.0000 C    0  0  0  0  0  0  0  0  0  0  0  0
   26.1153   -8.5636    0.0000 C    0  0  0  0  0  0  0  0  0  0  0  0
   24.1203  -12.0191    0.0000 P    0  0  0  0  0  0  0  0  0  0  0  0
   22.7903  -12.0191    0.0000 C    0  0  0  0  0  0  0  0  0  0  0  0
   22.1253  -13.1709    0.0000 C    0  0  0  0  0  0  0  0  0  0  0  0
   20.7953  -13.1709    0.0000 P    0  0  0  0  0  0  0  0  0  0  0  0
    7.3270  -13.1690    0.0000 C    0  0  0  0  0  0  0  0  0  0  0  0
    7.9920  -14.3208    0.0000 C    0  0  0  0  0  0  0  0  0  0  0  0
    5.9970  -13.1690    0.0000 C    0  0  0  0  0  0  0  0  0  0  0  0
    7.3270  -15.4726    0.0000 C    0  0  0  0  0  0  0  0  0  0  0  0
    5.3320  -14.3208    0.0000 C    0  0  0  0  0  0  0  0  0  0  0  0
    5.9970  -15.4726    0.0000 C    0  0  0  0  0  0  0  0  0  0  0  0
    7.3270  -10.8653    0.0000 C    0  0  0  0  0  0  0  0  0  0  0  0
    5.9970  -10.8653    0.0000 C    0  0  0  0  0  0  0  0  0  0  0  0
    7.9920   -9.7135    0.0000 C    0  0  0  0  0  0  0  0  0  0  0  0
    5.3320   -9.7135    0.0000 C    0  0  0  0  0  0  0  0  0  0  0  0
    7.3270   -8.5617    0.0000 C    0  0  0  0  0  0  0  0  0  0  0  0
    5.9970   -8.5617    0.0000 C    0  0  0  0  0  0  0  0  0  0  0  0
   11.9820  -12.0171    0.0000 C    0  0  0  0  0  0  0  0  0  0  0  0
   13.3120  -12.0171    0.0000 C    0  0  0  0  0  0  0  0  0  0  0  0
   11.3170  -13.1690    0.0000 C    0  0  0  0  0  0  0  0  0  0  0  0
   13.9770  -13.1690    0.0000 C    0  0  0  0  0  0  0  0  0  0  0  0
   11.9820  -14.3208    0.0000 C    0  0  0  0  0  0  0  0  0  0  0  0
   13.3120  -14.3208    0.0000 C    0  0  0  0  0  0  0  0  0  0  0  0
   11.9820   -9.7135    0.0000 C    0  0  0  0  0  0  0  0  0  0  0  0
   11.3170   -8.5617    0.0000 C    0  0  0  0  0  0  0  0  0  0  0  0
   13.3120   -9.7135    0.0000 C    0  0  0  0  0  0  0  0  0  0  0  0
   11.9820   -7.4099    0.0000 C    0  0  0  0  0  0  0  0  0  0  0  0
   13.9770   -8.5617    0.0000 C    0  0  0  0  0  0  0  0  0  0  0  0
   13.3120   -7.4099    0.0000 C    0  0  0  0  0  0  0  0  0  0  0  0
   11.3170  -10.8653    0.0000 P    0  0  0  0  0  0  0  0  0  0  0  0
    9.9870  -10.8653    0.0000 C    0  0  0  0  0  0  0  0  0  0  0  0
    9.3220  -12.0171    0.0000 C    0  0  0  0  0  0  0  0  0  0  0  0
    7.9920  -12.0171    0.0000 P    0  0  0  0  0  0  0  0  0  0  0  0
   14.8864  -10.8804    0.0000 Rh   0  3  0  0  0  0  0  0  0  0  0  0
    5.6245   -7.8839    0.0000 F    0  0  0  0  0  0  0  0  0  0  0  0
    8.2524   -7.7877    0.0000 F    0  0  0  0  0  0  0  0  0  0  0  0
    8.7011   -9.6786    0.0000 F    0  0  0  0  0  0  0  0  0  0  0  0
    5.4322  -11.7136    0.0000 F    0  0  0  0  0  0  0  0  0  0  0  0
    4.3586  -10.1913    0.0000 F    0  0  0  0  0  0  0  0  0  0  0  0
    5.4802  -13.2039    0.0000 F    0  0  0  0  0  0  0  0  0  0  0  0
    4.5829  -14.6460    0.0000 F    0  0  0  0  0  0  0  0  0  0  0  0
    5.8167  -16.5849    0.0000 F    0  0  0  0  0  0  0  0  0  0  0  0
    7.4833  -16.3286    0.0000 F    0  0  0  0  0  0  0  0  0  0  0  0
    9.5183  -14.2454    0.0000 F    0  0  0  0  0  0  0  0  0  0  0  0
   11.3771  -14.9986    0.0000 F    0  0  0  0  0  0  0  0  0  0  0  0
   13.7968  -15.2870    0.0000 F    0  0  0  0  0  0  0  0  0  0  0  0
   14.8383  -13.2039    0.0000 F    0  0  0  0  0  0  0  0  0  0  0  0
   14.0371  -11.4893    0.0000 F    0  0  0  0  0  0  0  0  0  0  0  0
   10.3035  -13.3160    0.0000 F    0  0  0  0  0  0  0  0  0  0  0  0
   13.6205  -10.1272    0.0000 F    0  0  0  0  0  0  0  0  0  0  0  0
   14.6140   -8.5408    0.0000 F    0  0  0  0  0  0  0  0  0  0  0  0
   13.6205   -6.5378    0.0000 F    0  0  0  0  0  0  0  0  0  0  0  0
   11.3451   -6.9224    0.0000 F    0  0  0  0  0  0  0  0  0  0  0  0
   10.2875   -8.8613    0.0000 F    0  0  0  0  0  0  0  0  0  0  0  0
   17.7387   -8.7171    0.0000 F    0  0  0  0  0  0  0  0  0  0  0  0
   20.3827   -8.9094    0.0000 F    0  0  0  0  0  0  0  0  0  0  0  0
   21.7287  -10.6881    0.0000 F    0  0  0  0  0  0  0  0  0  0  0  0
   17.6746  -12.7552    0.0000 F    0  0  0  0  0  0  0  0  0  0  0  0
   17.2900  -10.4157    0.0000 F    0  0  0  0  0  0  0  0  0  0  0  0
   22.3376  -15.5274    0.0000 F    0  0  0  0  0  0  0  0  0  0  0  0
   20.8313  -17.2900    0.0000 F    0  0  0  0  0  0  0  0  0  0  0  0
   18.4117  -17.3221    0.0000 F    0  0  0  0  0  0  0  0  0  0  0  0
   17.2259  -15.3831    0.0000 F    0  0  0  0  0  0  0  0  0  0  0  0
   18.2034  -13.5083    0.0000 F    0  0  0  0  0  0  0  0  0  0  0  0
   23.4593  -14.9505    0.0000 F    0  0  0  0  0  0  0  0  0  0  0  0
   24.3887  -16.3606    0.0000 F    0  0  0  0  0  0  0  0  0  0  0  0
   26.3116  -16.1363    0.0000 F    0  0  0  0  0  0  0  0  0  0  0  0
   27.6576  -14.0692    0.0000 F    0  0  0  0  0  0  0  0  0  0  0  0
   26.6321  -12.1943    0.0000 F    0  0  0  0  0  0  0  0  0  0  0  0
   26.5519  -11.3130    0.0000 F    0  0  0  0  0  0  0  0  0  0  0  0
   27.4333   -9.6625    0.0000 F    0  0  0  0  0  0  0  0  0  0  0  0
   26.2635   -7.8839    0.0000 F    0  0  0  0  0  0  0  0  0  0  0  0
   24.2765   -8.0601    0.0000 F    0  0  0  0  0  0  0  0  0  0  0  0
   23.1388   -9.5664    0.0000 F    0  0  0  0  0  0  0  0  0  0  0  0
   31.5034  -12.1703    0.0000 P    0  5  0  0  0  0  0  0  0  0  0  0
   32.0802  -11.1711    0.0000 F    0  0  0  0  0  0  0  0  0  0  0  0
   32.6571  -12.1703    0.0000 F    0  0  0  0  0  0  0  0  0  0  0  0
   32.0802  -13.1695    0.0000 F    0  0  0  0  0  0  0  0  0  0  0  0
   30.3496  -12.1703    0.0000 F    0  0  0  0  0  0  0  0  0  0  0  0
   30.9265  -11.1711    0.0000 F    0  0  0  0  0  0  0  0  0  0  0  0
   30.9265  -13.1695    0.0000 F    0  0  0  0  0  0  0  0  0  0  0  0
  1  2  1  0  0  0  0
  1  3  2  0  0  0  0
  2  4  2  0  0  0  0
  3  5  1  0  0  0  0
  4  6  1  0  0  0  0
  5  6  2  0  0  0  0
  7  8  1  0  0  0  0
  7  9  2  0  0  0  0
  8 10  2  0  0  0  0
  9 11  1  0  0  0  0
 10 12  1  0  0  0  0
 11 12  2  0  0  0  0
 13 14  1  0  0  0  0
 13 15  2  0  0  0  0
 14 16  2  0  0  0  0
 15 17  1  0  0  0  0
 16 18  1  0  0  0  0
 17 18  2  0  0  0  0
 19 20  1  0  0  0  0
 19 21  2  0  0  0  0
 20 22  2  0  0  0  0
 21 23  1  0  0  0  0
 22 24  1  0  0  0  0
 23 24  2  0  0  0  0
 19 25  1  0  0  0  0
 13 25  1  0  0  0  0
 25 26  1  0  0  0  0
 26 27  1  0  0  0  0
 27 28  1  0  0  0  0
  7 28  1  0  0  0  0
  1 28  1  0  0  0  0
 29 30  1  0  0  0  0
 29 31  2  0  0  0  0
 30 32  2  0  0  0  0
 31 33  1  0  0  0  0
 32 34  1  0  0  0  0
 33 34  2  0  0  0  0
 35 36  1  0  0  0  0
 35 37  2  0  0  0  0
 36 38  2  0  0  0  0
 37 39  1  0  0  0  0
 38 40  1  0  0  0  0
 39 40  2  0  0  0  0
 41 42  1  0  0  0  0
 41 43  2  0  0  0  0
 42 44  2  0  0  0  0
 43 45  1  0  0  0  0
 44 46  1  0  0  0  0
 45 46  2  0  0  0  0
 47 48  1  0  0  0  0
 47 49  2  0  0  0  0
 48 50  2  0  0  0  0
 49 51  1  0  0  0  0
 50 52  1  0  0  0  0
 51 52  2  0  0  0  0
 47 53  1  0  0  0  0
 41 53  1  0  0  0  0
 53 54  1  0  0  0  0
 54 55  1  0  0  0  0
 55 56  1  0  0  0  0
 35 56  1  0  0  0  0
 29 56  1  0  0  0  0
 53 57  1  0  0  0  0
 56 57  1  0  0  0  0
 28 57  1  0  0  0  0
 25 57  1  0  0  0  0
 40 58  1  0  0  0  0
 39 59  1  0  0  0  0
 37 60  1  0  0  0  0
 36 61  1  0  0  0  0
 38 62  1  0  0  0  0
 31 63  1  0  0  0  0
 33 64  1  0  0  0  0
 34 65  1  0  0  0  0
 32 66  1  0  0  0  0
 30 67  1  0  0  0  0
 45 68  1  0  0  0  0
 46 69  1  0  0  0  0
 44 70  1  0  0  0  0
 42 71  1  0  0  0  0
 43 72  1  0  0  0  0
 49 73  1  0  0  0  0
 51 74  1  0  0  0  0
 52 75  1  0  0  0  0
 50 76  1  0  0  0  0
 48 77  1  0  0  0  0
 12 78  1  0  0  0  0
 11 79  1  0  0  0  0
  9 80  1  0  0  0  0
  8 81  1  0  0  0  0
 10 82  1  0  0  0  0
  2 83  1  0  0  0  0
  4 84  1  0  0  0  0
  6 85  1  0  0  0  0
  5 86  1  0  0  0  0
  3 87  1  0  0  0  0
 15 88  1  0  0  0  0
 17 89  1  0  0  0  0
 18 90  1  0  0  0  0
 16 91  1  0  0  0  0
 14 92  1  0  0  0  0
 21 93  1  0  0  0  0
 23 94  1  0  0  0  0
 24 95  1  0  0  0  0
 22 96  1  0  0  0  0
 20 97  1  0  0  0  0
 98 99  1  0  0  0  0
 98100  1  0  0  0  0
 98101  1  0  0  0  0
 98102  1  0  0  0  0
 98103  1  0  0  0  0
 98104  1  0  0  0  0
M  END
> <NMREDATA_VERSION>
1.1

> <NMREDATA_LEVEL>
0

> <NMREDATA_SOLVENT>
CD2Cl2

> <NMREDATA_TEMPERATURE>
298

> <NMREDATA_FORMULA>
C52H12F46P5Rh

> <NMREDATA_SMILES>
F[P](F)(F)(F)(F)F.Fc1c(F)c(F)c(c(c1P1(CCP([Rh]21P(CCP2(c1c(F)c(F)c(c(c1F)F)F)c1c(F)c(F)c(c(c1F)F)F)(c1c(F)c(F)c(c(c1F)F)F)c1c(F)c(F)c(c(c1F)F)F)(c1c(F)c(F)c(c(c1F)F)F)c1c(F)c(F)c(c(c1F)F)F)c1c(F)c(F)c(c(c1F)F)F)F)F

> <NMREDATA_ASSIGNMENT>
Rh57, -671.00, 57

> <NMREDATA_1D_103Rh>
-671.00, L=Rh57

$$$$
