
  ACD/LABS03242411272D

 26 27  0  0  0  0  0  0  0  0  1 V2000
   17.9386   -3.2499    0.0000 C    0  0  0  0  0  0  0  0  0  0  0  0
   19.0904   -3.9149    0.0000 C    0  0  0  0  0  0  0  0  0  0  0  0
   16.7867   -3.9149    0.0000 C    0  0  0  0  0  0  0  0  0  0  0  0
   19.0904   -5.2449    0.0000 C    0  0  0  0  0  0  0  0  0  0  0  0
   16.7867   -5.2449    0.0000 C    0  0  0  0  0  0  0  0  0  0  0  0
   17.9386   -5.9099    0.0000 C    0  0  0  0  0  0  0  0  0  0  0  0
   16.7867   -7.9049    0.0000 Rh   0  0  0  0  0  0  0  0  0  0  0  0
   17.4517   -9.0567    0.0000 Cl   0  0  0  0  0  0  0  0  0  0  0  0
   16.1217   -6.7531    0.0000 Cl   0  0  0  0  0  0  0  0  0  0  0  0
   17.9386   -7.2399    0.0000 C    0  0  0  0  0  0  0  0  0  0  0  0
   15.6349   -8.5699    0.0000 N    0  0  0  0  0  0  0  0  0  0  0  0
   15.6349   -9.8999    0.0000 C    0  0  0  0  0  0  0  0  0  0  0  0
   14.4831   -7.9049    0.0000 C    0  0  0  0  0  0  0  0  0  0  0  0
   14.4831  -10.5649    0.0000 C    0  0  0  0  0  0  0  0  0  0  0  0
   13.3313   -8.5699    0.0000 C    0  0  0  0  0  0  0  0  0  0  0  0
   13.3313   -9.8999    0.0000 C    0  0  0  0  0  0  0  0  0  0  0  0
   16.7867  -10.5649    0.0000 C    0  0  0  0  0  0  0  0  0  0  0  0
   14.4831   -6.5749    0.0000 C    0  0  0  0  0  0  0  0  0  0  0  0
   16.7867  -11.8949    0.0000 N    0  0  0  0  0  0  0  0  0  0  0  0
   13.3313   -5.9099    0.0000 N    0  0  0  0  0  0  0  0  0  0  0  0
   15.6349  -12.5599    0.0000 C    0  0  0  0  0  0  0  0  0  0  0  0
   15.6349  -13.8899    0.0000 C    0  0  0  0  0  0  0  0  0  0  0  0
   14.4831  -11.8949    0.0000 C    0  0  0  0  0  0  0  0  0  0  0  0
   13.3313   -4.5799    0.0000 C    0  0  0  0  0  0  0  0  0  0  0  0
   12.1795   -3.9149    0.0000 C    0  0  0  0  0  0  0  0  0  0  0  0
   14.4831   -3.9149    0.0000 C    0  0  0  0  0  0  0  0  0  0  0  0
  1  2  1  0  0  0  0
  1  3  2  0  0  0  0
  2  4  2  0  0  0  0
  3  5  1  0  0  0  0
  4  6  1  0  0  0  0
  5  6  2  0  0  0  0
  7  8  1  0  0  0  0
  7  9  1  0  0  0  0
  7 10  1  0  0  0  0
  6 10  1  0  0  0  0
 11 12  1  0  0  0  0
 11 13  2  0  0  0  0
 12 14  2  0  0  0  0
 13 15  1  0  0  0  0
 14 16  1  0  0  0  0
 15 16  2  0  0  0  0
  7 11  1  0  0  0  0
 12 17  1  0  0  0  0
 13 18  1  0  0  0  0
 17 19  2  0  0  0  0
 18 20  2  0  0  0  0
 21 22  1  0  0  0  0
 21 23  1  0  0  0  0
 19 21  1  0  0  0  0
 24 25  1  0  0  0  0
 24 26  1  0  0  0  0
 20 24  1  0  0  0  0
M  END
> <NMREDATA_VERSION>
1.1

> <NMREDATA_LEVEL>
0

> <NMREDATA_SOLVENT>
CD2Cl2

> <NMREDATA_TEMPERATURE>
298

> <NMREDATA_FORMULA>
C20H27Cl2N3Rh

> <NMREDATA_SMILES>
CC(/N=C\C1=CC=CC(=N1[Rh](Cc1ccccc1)(Cl)Cl)/C=N/C(C)C)C

> <NMREDATA_ASSIGNMENT>
Rh7, 3649.00, 7

> <NMREDATA_1D_103Rh>
3649.00, L=Rh7

$$$$
