
  ACD/LABS03112411022D

 44 49  0  0  0  0  0  0  0  0  1 V2000
   14.5961  -28.8354    0.0000 C    0  0  0  0  0  0  0  0  0  0  0  0
   14.5961  -30.1654    0.0000 C    0  0  0  0  0  0  0  0  0  0  0  0
   13.4442  -28.1704    0.0000 C    0  0  0  0  0  0  0  0  0  0  0  0
   13.4442  -30.8304    0.0000 C    0  0  0  0  0  0  0  0  0  0  0  0
   12.2924  -28.8354    0.0000 C    0  0  0  0  0  0  0  0  0  0  0  0
   12.2924  -30.1654    0.0000 C    0  0  0  0  0  0  0  0  0  0  0  0
   11.2791  -28.6751    0.0000 C    0  0  0  0  0  0  0  0  0  0  0  0
   11.2791  -30.0051    0.0000 C    0  0  0  0  0  0  0  0  0  0  0  0
   10.1272  -28.0101    0.0000 C    0  0  0  0  0  0  0  0  0  0  0  0
   10.1272  -30.6701    0.0000 C    0  0  0  0  0  0  0  0  0  0  0  0
    8.9754  -28.6751    0.0000 C    0  0  0  0  0  0  0  0  0  0  0  0
    8.9754  -30.0051    0.0000 C    0  0  0  0  0  0  0  0  0  0  0  0
    9.7888  -25.8709    0.0000 C    0  0  0  0  0  0  0  0  0  0  0  0
    9.7888  -27.2009    0.0000 C    0  0  0  0  0  0  0  0  0  0  0  0
    8.6369  -25.2059    0.0000 C    0  0  0  0  0  0  0  0  0  0  0  0
    8.6369  -27.8659    0.0000 C    0  0  0  0  0  0  0  0  0  0  0  0
    7.4851  -25.8709    0.0000 C    0  0  0  0  0  0  0  0  0  0  0  0
    7.4851  -27.2009    0.0000 C    0  0  0  0  0  0  0  0  0  0  0  0
   20.9576  -24.3646    0.0000 C    0  0  0  0  0  0  0  0  0  0  0  0
   20.9576  -25.6946    0.0000 C    0  0  0  0  0  0  0  0  0  0  0  0
   19.8057  -23.6996    0.0000 C    0  0  0  0  0  0  0  0  0  0  0  0
   19.8057  -26.3596    0.0000 C    0  0  0  0  0  0  0  0  0  0  0  0
   18.6539  -24.3646    0.0000 C    0  0  0  0  0  0  0  0  0  0  0  0
   18.6539  -25.6946    0.0000 C    0  0  0  0  0  0  0  0  0  0  0  0
   19.8520  -20.5990    0.0000 C    0  0  0  0  0  0  0  0  0  0  0  0
   19.8520  -21.9290    0.0000 C    0  0  0  0  0  0  0  0  0  0  0  0
   18.7001  -19.9340    0.0000 C    0  0  0  0  0  0  0  0  0  0  0  0
   18.7001  -22.5940    0.0000 C    0  0  0  0  0  0  0  0  0  0  0  0
   17.5483  -20.5990    0.0000 C    0  0  0  0  0  0  0  0  0  0  0  0
   17.5483  -21.9290    0.0000 C    0  0  0  0  0  0  0  0  0  0  0  0
   16.6311  -18.9165    0.0000 C    0  0  0  0  0  0  0  0  0  0  0  0
   16.6311  -20.2465    0.0000 C    0  0  0  0  0  0  0  0  0  0  0  0
   15.4792  -18.2515    0.0000 C    0  0  0  0  0  0  0  0  0  0  0  0
   15.4792  -20.9115    0.0000 C    0  0  0  0  0  0  0  0  0  0  0  0
   14.3274  -18.9165    0.0000 C    0  0  0  0  0  0  0  0  0  0  0  0
   14.3274  -20.2465    0.0000 C    0  0  0  0  0  0  0  0  0  0  0  0
   14.0051  -24.9976    0.0000 Rh   0  0  0  0  0  0  0  0  0  0  0  0
   16.0241  -23.2990    0.0000 P    0  0  0  0  0  0  0  0  0  0  0  0
   12.3546  -26.3436    0.0000 P    0  0  0  0  0  0  0  0  0  0  0  0
   15.2229  -26.1033    0.0000 C    0  0  0  0  0  0  0  0  0  0  0  0
   16.5208  -27.0327    0.0000 O    0  0  0  0  0  0  0  0  0  0  0  0
   13.1567  -23.9733    0.0000 N    0  0  0  0  0  0  0  0  0  0  0  0
   11.8454  -24.1960    0.0000 C    0  0  0  0  0  0  0  0  0  0  0  0
   10.5342  -24.4186    0.0000 S    0  0  0  0  0  0  0  0  0  0  0  0
  1  2  1  0  0  0  0
  1  3  2  0  0  0  0
  2  4  2  0  0  0  0
  3  5  1  0  0  0  0
  4  6  1  0  0  0  0
  5  6  2  0  0  0  0
  7  8  1  0  0  0  0
  7  9  2  0  0  0  0
  8 10  2  0  0  0  0
  9 11  1  0  0  0  0
 10 12  1  0  0  0  0
 11 12  2  0  0  0  0
 13 14  1  0  0  0  0
 13 15  2  0  0  0  0
 14 16  2  0  0  0  0
 15 17  1  0  0  0  0
 16 18  1  0  0  0  0
 17 18  2  0  0  0  0
 19 20  1  0  0  0  0
 19 21  2  0  0  0  0
 20 22  2  0  0  0  0
 21 23  1  0  0  0  0
 22 24  1  0  0  0  0
 23 24  2  0  0  0  0
 25 26  1  0  0  0  0
 25 27  2  0  0  0  0
 26 28  2  0  0  0  0
 27 29  1  0  0  0  0
 28 30  1  0  0  0  0
 29 30  2  0  0  0  0
 31 32  1  0  0  0  0
 31 33  2  0  0  0  0
 32 34  2  0  0  0  0
 33 35  1  0  0  0  0
 34 36  1  0  0  0  0
 35 36  2  0  0  0  0
 37 38  1  0  0  0  0
 37 39  1  0  0  0  0
 34 38  1  0  0  0  0
 30 38  1  0  0  0  0
 23 38  1  0  0  0  0
 14 39  1  0  0  0  0
  7 39  1  0  0  0  0
  3 39  1  0  0  0  0
 37 40  1  0  0  0  0
 40 41  3  0  0  0  0
 42 43  2  0  0  0  0
 43 44  2  0  0  0  0
 37 42  1  0  0  0  0
M  END
> <NMREDATA_VERSION>
1.1

> <NMREDATA_LEVEL>
0

> <NMREDATA_SOLVENT>
DCCl3

> <NMREDATA_TEMPERATURE>
300

> <NMREDATA_FORMULA>
C38H32NOP2RhS

> <NMREDATA_SMILES>
[O]#C[Rh](P(c1ccccc1)(c1ccccc1)c1ccccc1)(P(c1ccccc1)(c1ccccc1)c1ccccc1)N=C=S

> <NMREDATA_ASSIGNMENT>
Rh37, -453.00, 37

> <NMREDATA_1D_103Rh>
-453.00, L=Rh37

$$$$
