
  ACD/LABS04032413572D

 32 32  0  0  0  0  0  0  0  0  2 V2000
   19.1610  -11.0246    0.0000 C    0  0  0  0  0  0  0  0  0  0  0  0
   19.1610  -12.3546    0.0000 C    0  0  0  0  0  0  0  0  0  0  0  0
   18.0091  -10.3596    0.0000 C    0  0  0  0  0  0  0  0  0  0  0  0
   18.0091  -13.0196    0.0000 C    0  0  0  0  0  0  0  0  0  0  0  0
   16.8574  -11.0246    0.0000 C    0  0  0  0  0  0  0  0  0  0  0  0
   16.8574  -12.3546    0.0000 C    0  0  0  0  0  0  0  0  0  0  0  0
   15.4934  -11.3210    0.0000 As   0  0  0  0  0  0  0  0  0  0  0  0
   18.0092   -9.3981    0.0000 As   0  0  0  0  0  0  0  0  0  0  0  0
   15.3492  -12.2504    0.0000 C    0  0  0  0  0  0  0  0  0  0  0  0
   15.5094  -10.3115    0.0000 C    0  0  0  0  0  0  0  0  0  0  0  0
   17.3682   -8.7091    0.0000 C    0  0  0  0  0  0  0  0  0  0  0  0
   19.2911   -8.4527    0.0000 C    0  0  0  0  0  0  0  0  0  0  0  0
   10.3497  -14.7021    0.0000 C    0  0  0  0  0  0  0  0  0  0  0  0
   10.3497  -16.0321    0.0000 C    0  0  0  0  0  0  0  0  0  0  0  0
    9.1978  -14.0371    0.0000 C    0  0  0  0  0  0  0  0  0  0  0  0
    9.1978  -16.6971    0.0000 C    0  0  0  0  0  0  0  0  0  0  0  0
    8.0460  -14.7021    0.0000 C    0  0  0  0  0  0  0  0  0  0  0  0
    8.0460  -16.0321    0.0000 C    0  0  0  0  0  0  0  0  0  0  0  0
   11.3931  -14.4377    0.0000 As   0  0  0  0  0  0  0  0  0  0  0  0
    8.5729  -13.0276    0.0000 As   0  0  0  0  0  0  0  0  0  0  0  0
    8.4127  -12.0021    0.0000 C    0  0  0  0  0  0  0  0  0  0  0  0
    6.9384  -12.9475    0.0000 C    0  0  0  0  0  0  0  0  0  0  0  0
   12.0341  -15.6395    0.0000 C    0  0  0  0  0  0  0  0  0  0  0  0
   12.8994  -14.8704    0.0000 C    0  0  0  0  0  0  0  0  0  0  0  0
   11.9059  -12.5629    0.0000 Rh   0  3  0  0  0  0  0  0  0  0  0  0
   11.0406  -11.5053    0.0000 I    0  0  0  0  0  0  0  0  0  0  0  0
   14.8543  -14.9505    0.0000 I    0  0  0  0  0  0  0  0  0  0  0  0
   23.5634  -14.1813    0.0000 B    0  5  0  0  0  0  0  0  0  0  0  0
   23.5634  -12.9955    0.0000 F    0  0  0  0  0  0  0  0  0  0  0  0
   24.7492  -14.1813    0.0000 F    0  0  0  0  0  0  0  0  0  0  0  0
   22.3777  -14.1813    0.0000 F    0  0  0  0  0  0  0  0  0  0  0  0
   23.5634  -15.3671    0.0000 F    0  0  0  0  0  0  0  0  0  0  0  0
  1  2  1  0  0  0  0
  1  3  2  0  0  0  0
  2  4  2  0  0  0  0
  3  5  1  0  0  0  0
  4  6  1  0  0  0  0
  5  6  2  0  0  0  0
  5  7  1  0  0  0  0
  3  8  1  0  0  0  0
  7  9  1  0  0  0  0
  7 10  1  0  0  0  0
  8 11  1  0  0  0  0
  8 12  1  0  0  0  0
 13 14  1  0  0  0  0
 13 15  2  0  0  0  0
 14 16  2  0  0  0  0
 15 17  1  0  0  0  0
 16 18  1  0  0  0  0
 17 18  2  0  0  0  0
 13 19  1  0  0  0  0
 15 20  1  0  0  0  0
 20 21  1  0  0  0  0
 20 22  1  0  0  0  0
 19 23  1  0  0  0  0
 19 24  1  0  0  0  0
 25 26  1  0  0  0  0
 25 27  1  0  0  0  0
 19 25  1  0  0  0  0
  7 25  1  0  0  0  0
 28 29  1  0  0  0  0
 28 30  1  0  0  0  0
 28 31  1  0  0  0  0
 28 32  1  0  0  0  0
M  END
> <NMREDATA_VERSION>
1.1

> <NMREDATA_LEVEL>
0

> <NMREDATA_SOLVENT>
DMF-d7

> <NMREDATA_TEMPERATURE>
300

> <NMREDATA_FORMULA>
C20H34As4BF4I2Rh

> <NMREDATA_SMILES>
F[B](F)(F)F.C[As](c1ccccc1[AsH]([Rh]([AsH](c1ccccc1[As](C)C)(C)C)(I)I)(C)C)C

> <NMREDATA_ASSIGNMENT>
Rh25, -160.00, 25

> <NMREDATA_1D_103Rh>
-160.00, L=Rh25

$$$$
