
  ACD/LABS03262411312D

 66 73  0  0  0  0  0  0  0  0  2 V2000
   27.0327   -7.3150    0.0000 B    0  5  0  0  0  0  0  0  0  0  0  0
   25.8670   -6.6420    0.0000 F    0  0  0  0  0  0  0  0  0  0  0  0
   27.7057   -6.1493    0.0000 F    0  0  0  0  0  0  0  0  0  0  0  0
   26.3596   -8.4807    0.0000 F    0  0  0  0  0  0  0  0  0  0  0  0
   28.1984   -7.9880    0.0000 F    0  0  0  0  0  0  0  0  0  0  0  0
   13.0375   -4.5482    0.0000 C    0  0  0  0  0  0  0  0  0  0  0  0
   14.0658   -5.3665    0.0000 N    0  0  0  0  0  0  0  0  0  0  0  0
   11.9355   -5.2754    0.0000 C    0  0  0  0  0  0  0  0  0  0  0  0
   13.6080   -6.6029    0.0000 C    0  0  0  0  0  0  0  0  0  0  0  0
   12.2834   -6.5426    0.0000 N    0  0  0  0  0  0  0  0  0  0  0  0
   12.9578   -3.2206    0.0000 C    0  0  0  0  0  0  0  0  0  0  0  0
   11.7685   -2.6251    0.0000 C    0  0  0  0  0  0  0  0  0  0  0  0
   10.7464   -4.6799    0.0000 C    0  0  0  0  0  0  0  0  0  0  0  0
   10.6665   -3.3522    0.0000 C    0  0  0  0  0  0  0  0  0  0  0  0
    9.6774  -12.4818    0.0000 C    0  0  0  0  0  0  0  0  0  0  0  0
    9.6700  -13.8175    0.0000 C    0  0  0  0  0  0  0  0  0  0  0  0
    8.5369  -11.8197    0.0000 C    0  0  0  0  0  0  0  0  0  0  0  0
    8.5133  -14.4751    0.0000 C    0  0  0  0  0  0  0  0  0  0  0  0
    7.3800  -12.4769    0.0000 C    0  0  0  0  0  0  0  0  0  0  0  0
    7.3685  -13.8047    0.0000 C    0  0  0  0  0  0  0  0  0  0  0  0
    8.8673  -10.9017    0.0000 C    0  0  0  0  0  0  0  0  0  0  0  0
   10.1811  -10.6756    0.0000 C    0  0  0  0  0  0  0  0  0  0  0  0
    8.0190   -9.8754    0.0000 C    0  0  0  0  0  0  0  0  0  0  0  0
   10.6385   -9.4279    0.0000 C    0  0  0  0  0  0  0  0  0  0  0  0
    8.4841   -8.6233    0.0000 C    0  0  0  0  0  0  0  0  0  0  0  0
    9.7905   -8.4021    0.0000 C    0  0  0  0  0  0  0  0  0  0  0  0
   10.8208  -14.1259    0.0000 C    0  0  0  0  0  0  0  0  0  0  0  0
   11.4917  -12.9808    0.0000 C    0  0  0  0  0  0  0  0  0  0  0  0
   11.4785  -15.2825    0.0000 C    0  0  0  0  0  0  0  0  0  0  0  0
   12.8274  -12.9883    0.0000 C    0  0  0  0  0  0  0  0  0  0  0  0
   12.8142  -15.2900    0.0000 C    0  0  0  0  0  0  0  0  0  0  0  0
   13.4850  -14.1449    0.0000 C    0  0  0  0  0  0  0  0  0  0  0  0
   21.5743   -9.6180    0.0000 C    0  0  0  0  0  0  0  0  0  0  0  0
   20.2596   -9.4347    0.0000 C    0  0  0  0  0  0  0  0  0  0  0  0
   22.0738  -10.8558    0.0000 C    0  0  0  0  0  0  0  0  0  0  0  0
   19.4405  -10.4813    0.0000 C    0  0  0  0  0  0  0  0  0  0  0  0
   21.2464  -11.9066    0.0000 C    0  0  0  0  0  0  0  0  0  0  0  0
   19.9273  -11.7156    0.0000 C    0  0  0  0  0  0  0  0  0  0  0  0
   16.0703   -8.8315    0.0000 Rh   0  3  0  0  0  0  0  0  0  0  0  0
   14.8486   -8.3292    0.0000 H    0  0  0  0  0  0  0  0  0  0  0  0
   16.3032   -5.9530    0.0000 C    0  0  0  0  0  0  0  0  0  0  0  0
   19.9074   -4.2301    0.0000 C    0  0  0  0  0  0  0  0  0  0  0  0
   18.8093   -3.4813    0.0000 C    0  0  0  0  0  0  0  0  0  0  0  0
   19.8049   -5.5597    0.0000 C    0  0  0  0  0  0  0  0  0  0  0  0
   17.6117   -4.0503    0.0000 C    0  0  0  0  0  0  0  0  0  0  0  0
   18.5989   -6.1329    0.0000 C    0  0  0  0  0  0  0  0  0  0  0  0
   17.5085   -5.3796    0.0000 C    0  0  0  0  0  0  0  0  0  0  0  0
   15.3530   -5.0161    0.0000 N    0  0  0  0  0  0  0  0  0  0  0  0
   10.8341  -11.8242    0.0000 P    0  0  0  0  0  0  0  0  0  0  0  0
   16.5622  -10.0737    0.0000 P    0  0  0  0  0  0  0  0  0  0  0  0
   11.7088  -11.3706    0.0000 C    0  0  0  0  0  0  0  0  0  0  0  0
   13.0452  -11.3256    0.0000 C    0  0  0  0  0  0  0  0  0  0  0  0
   11.0177  -10.2440    0.0000 C    0  0  0  0  0  0  0  0  0  0  0  0
   13.6705  -10.1555    0.0000 C    0  0  0  0  0  0  0  0  0  0  0  0
   11.6427   -9.0734    0.0000 C    0  0  0  0  0  0  0  0  0  0  0  0
   12.9714   -9.0335    0.0000 C    0  0  0  0  0  0  0  0  0  0  0  0
   18.0458  -13.3349    0.0000 C    0  0  0  0  0  0  0  0  0  0  0  0
   18.0057  -12.0058    0.0000 C    0  0  0  0  0  0  0  0  0  0  0  0
   16.9156  -14.0383    0.0000 C    0  0  0  0  0  0  0  0  0  0  0  0
   16.8312  -11.3729    0.0000 C    0  0  0  0  0  0  0  0  0  0  0  0
   15.7491  -13.4007    0.0000 C    0  0  0  0  0  0  0  0  0  0  0  0
   15.7012  -12.0767    0.0000 C    0  0  0  0  0  0  0  0  0  0  0  0
   17.3854   -8.6353    0.0000 Cl   0  0  0  0  0  0  0  0  0  0  0  0
   18.9123   -2.1556    0.0000 N    0  3  0  0  0  0  0  0  0  0  0  0
   20.1119   -1.5819    0.0000 O    0  5  0  0  0  0  0  0  0  0  0  0
   17.8157   -1.4035    0.0000 O    0  0  0  0  0  0  0  0  0  0  0  0
  1  2  1  0  0  0  0
  1  3  1  0  0  0  0
  1  4  1  0  0  0  0
  1  5  1  0  0  0  0
  6  7  1  0  0  0  0
  7  9  1  0  0  0  0
  8 10  1  0  0  0  0
  9 10  2  0  0  0  0
  6 11  1  0  0  0  0
  6  8  2  0  0  0  0
 11 12  2  0  0  0  0
  8 13  1  0  0  0  0
 12 14  1  0  0  0  0
 13 14  2  0  0  0  0
 15 16  1  0  0  0  0
 15 17  2  0  0  0  0
 16 18  2  0  0  0  0
 17 19  1  0  0  0  0
 18 20  1  0  0  0  0
 19 20  2  0  0  0  0
 21 22  1  0  0  0  0
 21 23  2  0  0  0  0
 22 24  2  0  0  0  0
 23 25  1  0  0  0  0
 24 26  1  0  0  0  0
 25 26  2  0  0  0  0
 27 28  1  0  0  0  0
 27 29  2  0  0  0  0
 28 30  2  0  0  0  0
 29 31  1  0  0  0  0
 30 32  1  0  0  0  0
 31 32  2  0  0  0  0
 33 34  1  0  0  0  0
 33 35  2  0  0  0  0
 34 36  2  0  0  0  0
 35 37  1  0  0  0  0
 36 38  1  0  0  0  0
 37 38  2  0  0  0  0
 39 40  1  0  0  0  0
 39 41  1  0  0  0  0
 42 43  1  0  0  0  0
 42 44  2  0  0  0  0
 43 45  2  0  0  0  0
 44 46  1  0  0  0  0
 45 47  1  0  0  0  0
 46 47  2  0  0  0  0
 41 47  1  0  0  0  0
 41 48  2  0  0  0  0
 39 49  1  0  0  0  0
 39 50  1  0  0  0  0
 36 50  1  0  0  0  0
 51 52  1  0  0  0  0
 51 53  2  0  0  0  0
 52 54  2  0  0  0  0
 53 55  1  0  0  0  0
 54 56  1  0  0  0  0
 55 56  2  0  0  0  0
 50 54  1  0  0  0  0
 57 58  1  0  0  0  0
 57 59  2  0  0  0  0
 58 60  2  0  0  0  0
 59 61  1  0  0  0  0
 60 62  1  0  0  0  0
 61 62  2  0  0  0  0
 50 60  1  0  0  0  0
 28 49  1  0  0  0  0
 22 49  1  0  0  0  0
 15 49  1  0  0  0  0
 39 63  1  0  0  0  0
 64 65  1  0  0  0  0
 64 66  2  0  0  0  0
 43 64  1  0  0  0  0
  7 48  1  0  0  0  0
M  END
> <NMREDATA_VERSION>
1.1

> <NMREDATA_LEVEL>
0

> <NMREDATA_SOLVENT>
DCCl3

> <NMREDATA_TEMPERATURE>
298

> <NMREDATA_FORMULA>
C50H44BClF4N4O2P2Rh

> <NMREDATA_SMILES>
F[B](F)(F)F.ON(=O)c1cccc(c1)/C(=N/n1cnc2c1cccc2)/[RhH](P(c1ccccc1)(c1ccccc1)c1ccccc1)(P(c1ccccc1)(c1ccccc1)c1ccccc1)Cl

> <NMREDATA_ASSIGNMENT>
Rh39, 984.00, 39

> <NMREDATA_1D_103Rh>
984.00, L=Rh39

$$$$
