
  ACD/LABS03092411222D

 49 55  0  0  0  0  0  0  0  0  2 V2000
   12.9486  -16.8550    0.0000 S    0  0  0  0  0  0  0  0  0  0  0  0
   11.6186  -16.8550    0.0000 Rh   0  3  0  0  0  0  0  0  0  0  0  0
   11.6186  -15.5250    0.0000 H    0  0  0  0  0  0  0  0  0  0  0  0
   11.6186  -18.1850    0.0000 C    0  0  0  0  0  0  0  0  0  0  0  0
   11.6186  -19.5150    0.0000 O    0  0  0  0  0  0  0  0  0  0  0  0
   10.2886  -16.8550    0.0000 C    0  0  0  0  0  0  0  0  0  0  0  0
    8.9586  -16.8550    0.0000 O    0  0  0  0  0  0  0  0  0  0  0  0
   16.0954  -13.7082    0.0000 C    0  0  0  0  0  0  0  0  0  0  0  0
   16.0954  -15.0382    0.0000 C    0  0  0  0  0  0  0  0  0  0  0  0
   14.9436  -13.0432    0.0000 O    0  0  0  0  0  0  0  0  0  0  0  0
   14.9436  -15.7032    0.0000 C    0  0  0  0  0  0  0  0  0  0  0  0
   13.7918  -13.7082    0.0000 C    0  0  0  0  0  0  0  0  0  0  0  0
   13.7918  -15.0382    0.0000 C    0  0  0  0  0  0  0  0  0  0  0  0
   17.2472  -13.0432    0.0000 C    0  0  0  0  0  0  0  0  0  0  0  0
   18.3990  -13.7082    0.0000 C    0  0  0  0  0  0  0  0  0  0  0  0
   17.2472  -15.7032    0.0000 C    0  0  0  0  0  0  0  0  0  0  0  0
   18.3990  -15.0382    0.0000 C    0  0  0  0  0  0  0  0  0  0  0  0
   12.6400  -13.0432    0.0000 C    0  0  0  0  0  0  0  0  0  0  0  0
   11.4882  -13.7082    0.0000 C    0  0  0  0  0  0  0  0  0  0  0  0
   12.6400  -15.7032    0.0000 C    0  0  0  0  0  0  0  0  0  0  0  0
   11.4882  -15.0382    0.0000 C    0  0  0  0  0  0  0  0  0  0  0  0
   12.6400  -11.7132    0.0000 P    0  0  0  0  0  0  0  0  0  0  0  0
   17.2472  -11.7132    0.0000 P    0  0  0  0  0  0  0  0  0  0  0  0
   14.9436  -10.3832    0.0000 C    0  0  0  0  0  0  0  0  0  0  0  0
   14.9436   -9.0532    0.0000 C    0  0  0  0  0  0  0  0  0  0  0  0
   16.0954  -11.0482    0.0000 C    0  0  0  0  0  0  0  0  0  0  0  0
   16.0954   -8.3882    0.0000 C    0  0  0  0  0  0  0  0  0  0  0  0
   17.2472  -10.3832    0.0000 C    0  0  0  0  0  0  0  0  0  0  0  0
   17.2472   -9.0532    0.0000 C    0  0  0  0  0  0  0  0  0  0  0  0
   11.4882  -11.0482    0.0000 C    0  0  0  0  0  0  0  0  0  0  0  0
   10.3363  -11.7132    0.0000 C    0  0  0  0  0  0  0  0  0  0  0  0
   11.4882   -9.7182    0.0000 C    0  0  0  0  0  0  0  0  0  0  0  0
    9.1845  -11.0482    0.0000 C    0  0  0  0  0  0  0  0  0  0  0  0
   10.3363   -9.0532    0.0000 C    0  0  0  0  0  0  0  0  0  0  0  0
    9.1845   -9.7182    0.0000 C    0  0  0  0  0  0  0  0  0  0  0  0
   18.3990  -11.0482    0.0000 C    0  0  0  0  0  0  0  0  0  0  0  0
   18.3990   -9.7182    0.0000 C    0  0  0  0  0  0  0  0  0  0  0  0
   19.5509  -11.7132    0.0000 C    0  0  0  0  0  0  0  0  0  0  0  0
   19.5509   -9.0532    0.0000 C    0  0  0  0  0  0  0  0  0  0  0  0
   20.7027  -11.0482    0.0000 C    0  0  0  0  0  0  0  0  0  0  0  0
   20.7027   -9.7182    0.0000 C    0  0  0  0  0  0  0  0  0  0  0  0
   16.0954  -11.0482    0.0000 C    0  0  0  0  0  0  0  0  0  0  0  0
   14.9436  -11.7132    0.0000 C    0  0  0  0  0  0  0  0  0  0  0  0
   16.0954   -9.7182    0.0000 C    0  0  0  0  0  0  0  0  0  0  0  0
   13.7918  -11.0482    0.0000 C    0  0  0  0  0  0  0  0  0  0  0  0
   14.9436   -9.0532    0.0000 C    0  0  0  0  0  0  0  0  0  0  0  0
   13.7918   -9.7182    0.0000 C    0  0  0  0  0  0  0  0  0  0  0  0
   14.2786  -16.8550    0.0000 C    0  0  0  0  0  0  0  0  0  0  0  0
   15.6086  -16.8550    0.0000 C    0  0  0  0  0  0  0  0  0  0  0  0
  2  3  1  0  0  0  0
  2  4  1  0  0  0  0
  4  5  3  0  0  0  0
  2  6  1  0  0  0  0
  6  7  3  0  0  0  0
  1  2  1  0  0  0  0
  8 10  1  0  0  0  0
  9 11  1  0  0  0  0
 10 12  1  0  0  0  0
 11 13  1  0  0  0  0
  8 14  1  0  0  0  0
  8  9  2  0  0  0  0
 14 15  2  0  0  0  0
  9 16  1  0  0  0  0
 15 17  1  0  0  0  0
 16 17  2  0  0  0  0
 12 18  1  0  0  0  0
 12 13  2  0  0  0  0
 18 19  2  0  0  0  0
 13 20  1  0  0  0  0
 19 21  1  0  0  0  0
 20 21  2  0  0  0  0
 18 22  1  0  0  0  0
 14 23  1  0  0  0  0
 24 25  1  0  0  0  0
 24 26  2  0  0  0  0
 25 27  2  0  0  0  0
 26 28  1  0  0  0  0
 27 29  1  0  0  0  0
 28 29  2  0  0  0  0
 22 24  1  0  0  0  0
 30 31  1  0  0  0  0
 30 32  2  0  0  0  0
 31 33  2  0  0  0  0
 32 34  1  0  0  0  0
 33 35  1  0  0  0  0
 34 35  2  0  0  0  0
 22 30  1  0  0  0  0
 36 37  1  0  0  0  0
 36 38  2  0  0  0  0
 37 39  2  0  0  0  0
 38 40  1  0  0  0  0
 39 41  1  0  0  0  0
 40 41  2  0  0  0  0
 23 36  1  0  0  0  0
 42 43  1  0  0  0  0
 42 44  2  0  0  0  0
 43 45  2  0  0  0  0
 44 46  1  0  0  0  0
 45 47  1  0  0  0  0
 46 47  2  0  0  0  0
 23 42  1  0  0  0  0
 11 48  1  0  0  0  0
 11 49  1  0  0  0  0
  1 48  1  0  0  0  0
M  END
> <NMREDATA_VERSION>
1.1

> <NMREDATA_LEVEL>
0

> <NMREDATA_SOLVENT>
C6D6

> <NMREDATA_TEMPERATURE>
298

> <NMREDATA_FORMULA>
C41H32O3P2RhS

> <NMREDATA_SMILES>
[O]#C[RhH](SCC1(C)c2cccc(c2Oc2c1cccc2P(c1ccccc1)c1ccccc1)P(c1ccccc1)c1ccccc1)C#[O]

> <NMREDATA_ASSIGNMENT>
Rh2, -840.00, 2

> <NMREDATA_1D_103Rh>
-840.00, L=Rh2

$$$$
