
  ACD/LABS02222414152D

 11 11  0  0  0  0  0  0  0  0  1 V2000
   16.5788   -8.1133    0.0000 C    0  0  0  0  0  0  0  0  0  0  0  0
   15.2453   -8.1133    0.0000 C    0  0  0  0  0  0  0  0  0  0  0  0
   16.9876   -9.3755    0.0000 C    0  0  0  0  0  0  0  0  0  0  0  0
   14.8366   -9.3755    0.0000 C    0  0  0  0  0  0  0  0  0  0  0  0
   15.9120  -10.1579    0.0000 C    0  0  0  0  0  0  0  0  0  0  0  0
   14.8190  -10.9043    0.0000 Rh   0  0  0  0  0  0  0  0  0  0  0  0
   14.6855  -12.2288    0.0000 C    0  0  0  0  0  0  0  0  0  0  0  0
   13.6189  -10.3355    0.0000 C    0  0  0  0  0  0  0  0  0  0  0  0
   14.5522  -13.5532    0.0000 O    0  0  0  0  0  0  0  0  0  0  0  0
   12.4189   -9.7488    0.0000 O    0  0  0  0  0  0  0  0  0  0  0  0
   17.2900  -10.7041    0.0000 Cl   0  0  0  0  0  0  0  0  0  0  0  0
  1  2  1  0  0  0  0
  1  3  2  0  0  0  0
  2  4  2  0  0  0  0
  3  5  1  0  0  0  0
  4  5  1  0  0  0  0
  5  6  1  0  0  0  0
  6  7  1  0  0  0  0
  6  8  1  0  0  0  0
  7  9  3  0  0  0  0
  8 10  3  0  0  0  0
  5 11  1  0  0  0  0
M  END
> <NMREDATA_VERSION>
1.1

> <NMREDATA_LEVEL>
0

> <NMREDATA_SOLVENT>
C6D6

> <NMREDATA_TEMPERATURE>
298

> <NMREDATA_FORMULA>
C7H4ClO2Rh

> <NMREDATA_SMILES>
[O]#C[Rh](C1(Cl)C=CC=C1)C#[O]

> <NMREDATA_ASSIGNMENT>
Rh6, -1166.00, 6

> <NMREDATA_1D_103Rh>
-1166.00, L=Rh6

$$$$
