
  ACD/LABS04012414372D

 74 82  0  0  0  0  0  0  0  0  1 V2000
    9.8369  -14.0131    0.0000 C    0  0  0  0  0  0  0  0  0  0  0  0
    9.8369  -15.3431    0.0000 C    0  0  0  0  0  0  0  0  0  0  0  0
    8.6850  -13.3481    0.0000 C    0  0  0  0  0  0  0  0  0  0  0  0
    8.6850  -16.0081    0.0000 C    0  0  0  0  0  0  0  0  0  0  0  0
    7.5332  -14.0131    0.0000 C    0  0  0  0  0  0  0  0  0  0  0  0
    7.5332  -15.3431    0.0000 C    0  0  0  0  0  0  0  0  0  0  0  0
   14.5799  -16.8101    0.0000 C    0  0  0  0  0  0  0  0  0  0  0  0
   15.2147  -17.9788    0.0000 C    0  0  0  0  0  0  0  0  0  0  0  0
   15.2746  -15.6760    0.0000 C    0  0  0  0  0  0  0  0  0  0  0  0
   16.5443  -18.0134    0.0000 C    0  0  0  0  0  0  0  0  0  0  0  0
   16.6042  -15.7106    0.0000 C    0  0  0  0  0  0  0  0  0  0  0  0
   17.2390  -16.8793    0.0000 C    0  0  0  0  0  0  0  0  0  0  0  0
   18.3984  -16.6007    0.0000 C    0  0  0  0  0  0  0  0  0  0  0  0
   19.5326  -17.2955    0.0000 C    0  0  0  0  0  0  0  0  0  0  0  0
   18.4330  -15.2712    0.0000 C    0  0  0  0  0  0  0  0  0  0  0  0
   20.7013  -16.6607    0.0000 C    0  0  0  0  0  0  0  0  0  0  0  0
   19.6017  -14.6364    0.0000 C    0  0  0  0  0  0  0  0  0  0  0  0
   20.7359  -15.3311    0.0000 C    0  0  0  0  0  0  0  0  0  0  0  0
   16.1648  -13.8817    0.0000 C    0  0  0  0  0  0  0  0  0  0  0  0
   16.1994  -12.5522    0.0000 C    0  0  0  0  0  0  0  0  0  0  0  0
   14.9960  -14.5165    0.0000 C    0  0  0  0  0  0  0  0  0  0  0  0
   15.0652  -11.8574    0.0000 C    0  0  0  0  0  0  0  0  0  0  0  0
   13.8619  -13.8218    0.0000 C    0  0  0  0  0  0  0  0  0  0  0  0
   13.8965  -12.4923    0.0000 C    0  0  0  0  0  0  0  0  0  0  0  0
   16.1825   -5.5844    0.0000 C    0  0  0  0  0  0  0  0  0  0  0  0
   16.1825   -6.9144    0.0000 C    0  0  0  0  0  0  0  0  0  0  0  0
   15.0305   -4.9194    0.0000 C    0  0  0  0  0  0  0  0  0  0  0  0
   15.0305   -7.5794    0.0000 C    0  0  0  0  0  0  0  0  0  0  0  0
   13.8788   -5.5844    0.0000 C    0  0  0  0  0  0  0  0  0  0  0  0
   13.8788   -6.9144    0.0000 C    0  0  0  0  0  0  0  0  0  0  0  0
   13.3462   -6.0010    0.0000 C    0  0  0  0  0  0  0  0  0  0  0  0
   13.3462   -7.3310    0.0000 C    0  0  0  0  0  0  0  0  0  0  0  0
   12.1943   -5.3360    0.0000 C    0  0  0  0  0  0  0  0  0  0  0  0
   12.1943   -7.9960    0.0000 C    0  0  0  0  0  0  0  0  0  0  0  0
   11.0425   -6.0010    0.0000 C    0  0  0  0  0  0  0  0  0  0  0  0
   11.0425   -7.3310    0.0000 C    0  0  0  0  0  0  0  0  0  0  0  0
   11.2951   -8.7411    0.0000 C    0  0  0  0  0  0  0  0  0  0  0  0
   11.2951  -10.0711    0.0000 C    0  0  0  0  0  0  0  0  0  0  0  0
   10.1432   -8.0761    0.0000 C    0  0  0  0  0  0  0  0  0  0  0  0
   10.1432  -10.7361    0.0000 C    0  0  0  0  0  0  0  0  0  0  0  0
    8.9914   -8.7411    0.0000 C    0  0  0  0  0  0  0  0  0  0  0  0
    8.9914  -10.0711    0.0000 C    0  0  0  0  0  0  0  0  0  0  0  0
   16.2645  -10.2394    0.0000 Rh   0  0  0  0  0  0  0  0  0  0  0  0
   14.4698   -8.8133    0.0000 P    0  0  0  0  0  0  0  0  0  0  0  0
   17.0657   -7.8198    0.0000 H    0  0  0  0  0  0  0  0  0  0  0  0
   17.2989  -11.3396    0.0000 N    0  0  0  0  0  0  0  0  0  0  0  0
   18.5096  -12.6000    0.0000 C    0  0  0  0  0  0  0  0  0  0  0  0
   17.2989  -14.5765    0.0000 B    0  0  0  0  0  0  0  0  0  0  0  0
   19.3571   -8.9895    0.0000 Sn   0  0  0  0  0  4  0  0  0  0  0  0
   11.5534  -12.8353    0.0000 P    0  0  0  0  0  0  0  0  0  0  0  0
   11.5268  -14.1650    0.0000 C    0  0  0  0  0  0  0  0  0  0  0  0
   12.6651  -14.8529    0.0000 C    0  0  0  0  0  0  0  0  0  0  0  0
   10.3619  -14.8070    0.0000 C    0  0  0  0  0  0  0  0  0  0  0  0
   12.6385  -16.1827    0.0000 C    0  0  0  0  0  0  0  0  0  0  0  0
   10.3353  -16.1367    0.0000 C    0  0  0  0  0  0  0  0  0  0  0  0
   11.4736  -16.8246    0.0000 C    0  0  0  0  0  0  0  0  0  0  0  0
   10.4151  -12.1474    0.0000 C    0  0  0  0  0  0  0  0  0  0  0  0
    9.2502  -12.7893    0.0000 C    0  0  0  0  0  0  0  0  0  0  0  0
   10.4416  -10.8176    0.0000 C    0  0  0  0  0  0  0  0  0  0  0  0
    8.1119  -12.1013    0.0000 C    0  0  0  0  0  0  0  0  0  0  0  0
    9.3033  -10.1298    0.0000 C    0  0  0  0  0  0  0  0  0  0  0  0
    8.1385  -10.7716    0.0000 C    0  0  0  0  0  0  0  0  0  0  0  0
   18.8141   -7.8824    0.0000 C    0  0  0  0  0  0  0  0  0  0  0  0
   19.4498   -6.8667    0.0000 C    0  0  0  0  0  0  0  0  0  0  0  0
   18.9394   -5.7764    0.0000 C    0  0  0  0  0  0  0  0  0  0  0  0
   19.6368   -4.7841    0.0000 C    0  0  0  0  0  0  0  0  0  0  0  0
   19.7636  -10.1569    0.0000 C    0  0  0  0  0  0  0  0  0  0  0  0
   20.8875  -10.4451    0.0000 C    0  0  0  0  0  0  0  0  0  0  0  0
   21.4975  -11.4467    0.0000 C    0  0  0  0  0  0  0  0  0  0  0  0
   22.7144  -11.4355    0.0000 C    0  0  0  0  0  0  0  0  0  0  0  0
   20.4370   -8.4135    0.0000 C    0  0  0  0  0  0  0  0  0  0  0  0
   21.4992   -8.8598    0.0000 C    0  0  0  0  0  0  0  0  0  0  0  0
   22.5880   -8.3990    0.0000 C    0  0  0  0  0  0  0  0  0  0  0  0
   23.5643   -9.1265    0.0000 C    0  0  0  0  0  0  0  0  0  0  0  0
  1  2  1  0  0  0  0
  1  3  2  0  0  0  0
  2  4  2  0  0  0  0
  3  5  1  0  0  0  0
  4  6  1  0  0  0  0
  5  6  2  0  0  0  0
  7  8  1  0  0  0  0
  7  9  2  0  0  0  0
  8 10  2  0  0  0  0
  9 11  1  0  0  0  0
 10 12  1  0  0  0  0
 11 12  2  0  0  0  0
 13 14  1  0  0  0  0
 13 15  2  0  0  0  0
 14 16  2  0  0  0  0
 15 17  1  0  0  0  0
 16 18  1  0  0  0  0
 17 18  2  0  0  0  0
 19 20  1  0  0  0  0
 19 21  2  0  0  0  0
 20 22  2  0  0  0  0
 21 23  1  0  0  0  0
 22 24  1  0  0  0  0
 23 24  2  0  0  0  0
 25 26  1  0  0  0  0
 25 27  2  0  0  0  0
 26 28  2  0  0  0  0
 27 29  1  0  0  0  0
 28 30  1  0  0  0  0
 29 30  2  0  0  0  0
 31 32  1  0  0  0  0
 31 33  2  0  0  0  0
 32 34  2  0  0  0  0
 33 35  1  0  0  0  0
 34 36  1  0  0  0  0
 35 36  2  0  0  0  0
 37 38  1  0  0  0  0
 37 39  2  0  0  0  0
 38 40  2  0  0  0  0
 39 41  1  0  0  0  0
 40 42  1  0  0  0  0
 41 42  2  0  0  0  0
 43 44  1  0  0  0  0
 37 44  1  0  0  0  0
 32 44  1  0  0  0  0
 28 44  1  0  0  0  0
 43 45  1  0  0  0  0
 46 47  3  0  0  0  0
 43 46  1  0  0  0  0
 47 48  1  0  0  0  0
 19 48  1  0  0  0  0
 15 48  1  0  0  0  0
 11 48  1  0  0  0  0
 43 49  1  0  0  0  0
 43 50  1  0  0  0  0
 51 52  1  0  0  0  0
 51 53  2  0  0  0  0
 52 54  2  0  0  0  0
 53 55  1  0  0  0  0
 54 56  1  0  0  0  0
 55 56  2  0  0  0  0
 50 51  1  0  0  0  0
 57 58  1  0  0  0  0
 57 59  2  0  0  0  0
 58 60  2  0  0  0  0
 59 61  1  0  0  0  0
 60 62  1  0  0  0  0
 61 62  2  0  0  0  0
 50 57  1  0  0  0  0
  1 50  1  0  0  0  0
 49 63  1  0  0  0  0
 63 64  1  0  0  0  0
 64 65  1  0  0  0  0
 65 66  1  0  0  0  0
 49 67  1  0  0  0  0
 67 68  1  0  0  0  0
 68 69  1  0  0  0  0
 69 70  1  0  0  0  0
 49 71  1  0  0  0  0
 71 72  1  0  0  0  0
 72 73  1  0  0  0  0
 73 74  1  0  0  0  0
M  END
> <NMREDATA_VERSION>
1.1

> <NMREDATA_LEVEL>
0

> <NMREDATA_SOLVENT>
CD2Cl2

> <NMREDATA_TEMPERATURE>
248

> <NMREDATA_FORMULA>
C67H76BNP2RhSn

> <NMREDATA_SMILES>
CCCC[Sn]([RhH](P(c1ccccc1)(c1ccccc1)c1ccccc1)(P(c1ccccc1)(c1ccccc1)c1ccccc1)N#C[B](c1ccccc1)(c1ccccc1)c1ccccc1)(CCCC)CCCC

> <NMREDATA_ASSIGNMENT>
Rh43, -132.00, 43

> <NMREDATA_1D_103Rh>
-132.00, L=Rh43

$$$$
