
  ACD/LABS04262416562D

 96113  0  0  0  0  0  0  0  0  2 V2000
   26.3578  -16.6250    0.0000 C    0  0  0  0  0  0  0  0  0  0  0  0
   26.3578  -17.9550    0.0000 C    0  0  0  0  0  0  0  0  0  0  0  0
   25.2058  -15.9600    0.0000 C    0  0  0  0  0  0  0  0  0  0  0  0
   25.2058  -18.6200    0.0000 C    0  0  0  0  0  0  0  0  0  0  0  0
   24.0541  -16.6250    0.0000 C    0  0  0  0  0  0  0  0  0  0  0  0
   24.0541  -17.9550    0.0000 C    0  0  0  0  0  0  0  0  0  0  0  0
   18.1534  -18.5319    0.0000 C    0  0  0  0  0  0  0  0  0  0  0  0
   18.1534  -19.8619    0.0000 C    0  0  0  0  0  0  0  0  0  0  0  0
   17.0015  -17.8669    0.0000 C    0  0  0  0  0  0  0  0  0  0  0  0
   17.0015  -20.5269    0.0000 C    0  0  0  0  0  0  0  0  0  0  0  0
   15.8497  -18.5319    0.0000 C    0  0  0  0  0  0  0  0  0  0  0  0
   15.8497  -19.8619    0.0000 C    0  0  0  0  0  0  0  0  0  0  0  0
   11.9040  -13.5003    0.0000 C    0  0  0  0  0  0  0  0  0  0  0  0
   11.9040  -14.8303    0.0000 C    0  0  0  0  0  0  0  0  0  0  0  0
   10.7521  -12.8353    0.0000 C    0  0  0  0  0  0  0  0  0  0  0  0
   10.7521  -15.4953    0.0000 C    0  0  0  0  0  0  0  0  0  0  0  0
    9.6003  -13.5003    0.0000 C    0  0  0  0  0  0  0  0  0  0  0  0
    9.6003  -14.8303    0.0000 C    0  0  0  0  0  0  0  0  0  0  0  0
   18.5559   -9.1017    0.0000 Rh   0  6  0  0  0  0  0  0  0  0  0  0
   16.3125   -9.9349    0.0000 H    0  0  0  0  0  0  0  0  0  0  0  0
   20.3827  -10.4157    0.0000 H    0  0  0  0  0  0  0  0  0  0  0  0
   16.1843  -11.4572    0.0000 Au   0  6  0  0  0  0  0  0  0  0  0  0
   20.1904  -11.6655    0.0000 Au   0  6  0  0  0  0  0  0  0  0  0  0
   18.0752  -13.2519    0.0000 Au   0  5  0  0  0  0  0  0  0  0  0  0
   17.4182   -7.7717    0.0000 P    0  0  0  0  0  0  0  0  0  0  0  0
   18.9084   -7.4993    0.0000 P    0  0  0  0  0  0  0  0  0  0  0  0
   20.7512   -8.3325    0.0000 P    0  0  0  0  0  0  0  0  0  0  0  0
   17.0977   -6.1212    0.0000 C    0  0  0  0  0  0  0  0  0  0  0  0
   19.0366   -5.3200    0.0000 C    0  0  0  0  0  0  0  0  0  0  0  0
   18.7963   -6.2494    0.0000 C    0  0  0  0  0  0  0  0  0  0  0  0
   20.7993   -6.4898    0.0000 C    0  0  0  0  0  0  0  0  0  0  0  0
   19.0687   -4.0541    0.0000 C    0  0  0  0  0  0  0  0  0  0  0  0
   22.1655   -9.3636    0.0000 C    0  0  0  0  0  0  0  0  0  0  0  0
   23.7656   -8.6543    0.0000 C    0  0  0  0  0  0  0  0  0  0  0  0
   21.9798  -11.1040    0.0000 C    0  0  0  0  0  0  0  0  0  0  0  0
   25.1799   -9.6855    0.0000 C    0  0  0  0  0  0  0  0  0  0  0  0
   23.3940  -12.1351    0.0000 C    0  0  0  0  0  0  0  0  0  0  0  0
   24.9941  -11.4258    0.0000 C    0  0  0  0  0  0  0  0  0  0  0  0
   20.6551   -7.6104    0.0000 C    0  0  0  0  0  0  0  0  0  0  0  0
   21.6247   -6.1533    0.0000 C    0  0  0  0  0  0  0  0  0  0  0  0
   21.4323   -9.1787    0.0000 C    0  0  0  0  0  0  0  0  0  0  0  0
   23.3715   -6.2645    0.0000 C    0  0  0  0  0  0  0  0  0  0  0  0
   23.1790   -9.2898    0.0000 C    0  0  0  0  0  0  0  0  0  0  0  0
   24.1486   -7.8327    0.0000 C    0  0  0  0  0  0  0  0  0  0  0  0
   15.8420   -8.5325    0.0000 C    0  0  0  0  0  0  0  0  0  0  0  0
   15.7128  -10.2780    0.0000 C    0  0  0  0  0  0  0  0  0  0  0  0
   14.3949   -7.5479    0.0000 C    0  0  0  0  0  0  0  0  0  0  0  0
   14.1364  -11.0388    0.0000 C    0  0  0  0  0  0  0  0  0  0  0  0
   12.8187   -8.3087    0.0000 C    0  0  0  0  0  0  0  0  0  0  0  0
   12.6895  -10.0541    0.0000 C    0  0  0  0  0  0  0  0  0  0  0  0
   14.1813  -12.5308    0.0000 P    0  0  0  0  0  0  0  0  0  0  0  0
   17.6746  -15.1748    0.0000 P    0  0  0  0  0  0  0  0  0  0  0  0
   21.9049  -13.7807    0.0000 P    0  0  0  0  0  0  0  0  0  0  0  0
   21.2785  -15.4150    0.0000 C    0  0  0  0  0  0  0  0  0  0  0  0
   22.3806  -16.7747    0.0000 C    0  0  0  0  0  0  0  0  0  0  0  0
   19.5499  -15.6897    0.0000 C    0  0  0  0  0  0  0  0  0  0  0  0
   21.7541  -18.4090    0.0000 C    0  0  0  0  0  0  0  0  0  0  0  0
   18.9235  -17.3240    0.0000 C    0  0  0  0  0  0  0  0  0  0  0  0
   20.0256  -18.6836    0.0000 C    0  0  0  0  0  0  0  0  0  0  0  0
   23.6335  -13.5061    0.0000 C    0  0  0  0  0  0  0  0  0  0  0  0
   24.2599  -11.8718    0.0000 C    0  0  0  0  0  0  0  0  0  0  0  0
   24.7357  -14.8658    0.0000 C    0  0  0  0  0  0  0  0  0  0  0  0
   25.9886  -11.5972    0.0000 C    0  0  0  0  0  0  0  0  0  0  0  0
   26.4642  -14.5911    0.0000 C    0  0  0  0  0  0  0  0  0  0  0  0
   27.0906  -12.9568    0.0000 C    0  0  0  0  0  0  0  0  0  0  0  0
   16.0122  -15.7224    0.0000 C    0  0  0  0  0  0  0  0  0  0  0  0
   15.6552  -17.4358    0.0000 C    0  0  0  0  0  0  0  0  0  0  0  0
   14.7067  -14.5565    0.0000 C    0  0  0  0  0  0  0  0  0  0  0  0
   13.9927  -17.9834    0.0000 C    0  0  0  0  0  0  0  0  0  0  0  0
   13.0444  -15.1041    0.0000 C    0  0  0  0  0  0  0  0  0  0  0  0
   12.6874  -16.8175    0.0000 C    0  0  0  0  0  0  0  0  0  0  0  0
   18.9800  -16.3407    0.0000 C    0  0  0  0  0  0  0  0  0  0  0  0
   20.6424  -15.7931    0.0000 C    0  0  0  0  0  0  0  0  0  0  0  0
   18.6230  -18.0542    0.0000 C    0  0  0  0  0  0  0  0  0  0  0  0
   21.9478  -16.9591    0.0000 C    0  0  0  0  0  0  0  0  0  0  0  0
   19.9284  -19.2201    0.0000 C    0  0  0  0  0  0  0  0  0  0  0  0
   21.5908  -18.6725    0.0000 C    0  0  0  0  0  0  0  0  0  0  0  0
   12.6940  -11.6083    0.0000 C    0  0  0  0  0  0  0  0  0  0  0  0
   11.1513  -12.4352    0.0000 C    0  0  0  0  0  0  0  0  0  0  0  0
   12.7492   -9.8589    0.0000 C    0  0  0  0  0  0  0  0  0  0  0  0
    9.6639  -11.5125    0.0000 C    0  0  0  0  0  0  0  0  0  0  0  0
   11.2618   -8.9364    0.0000 C    0  0  0  0  0  0  0  0  0  0  0  0
    9.7192   -9.7632    0.0000 C    0  0  0  0  0  0  0  0  0  0  0  0
   14.1261  -14.2802    0.0000 C    0  0  0  0  0  0  0  0  0  0  0  0
   15.6134  -15.2027    0.0000 C    0  0  0  0  0  0  0  0  0  0  0  0
   12.5834  -15.1071    0.0000 C    0  0  0  0  0  0  0  0  0  0  0  0
   15.5581  -16.9522    0.0000 C    0  0  0  0  0  0  0  0  0  0  0  0
   12.5282  -16.8564    0.0000 C    0  0  0  0  0  0  0  0  0  0  0  0
   14.0155  -17.7790    0.0000 C    0  0  0  0  0  0  0  0  0  0  0  0
   32.4168   -8.7331    0.0000 P    0  5  0  0  0  0  0  0  0  0  0  0
   32.8013   -7.4192    0.0000 F    0  0  0  0  0  0  0  0  0  0  0  0
   33.8429   -8.4127    0.0000 F    0  0  0  0  0  0  0  0  0  0  0  0
   31.3752   -8.0441    0.0000 F    0  0  0  0  0  0  0  0  0  0  0  0
   30.6381   -9.0536    0.0000 F    0  0  0  0  0  0  0  0  0  0  0  0
   31.6156   -9.6946    0.0000 F    0  0  0  0  0  0  0  0  0  0  0  0
   33.2981   -9.8869    0.0000 F    0  0  0  0  0  0  0  0  0  0  0  0
  1  2  1  0  0  0  0
  1  3  2  0  0  0  0
  2  4  2  0  0  0  0
  3  5  1  0  0  0  0
  4  6  1  0  0  0  0
  5  6  2  0  0  0  0
  7  8  1  0  0  0  0
  7  9  2  0  0  0  0
  8 10  2  0  0  0  0
  9 11  1  0  0  0  0
 10 12  1  0  0  0  0
 11 12  2  0  0  0  0
 13 14  1  0  0  0  0
 13 15  2  0  0  0  0
 14 16  2  0  0  0  0
 15 17  1  0  0  0  0
 16 18  1  0  0  0  0
 17 18  2  0  0  0  0
 19 20  1  0  0  0  0
 19 21  1  0  0  0  0
 19 22  1  0  0  0  0
 19 23  1  0  0  0  0
 19 24  1  0  0  0  0
 22 24  1  0  0  0  0
 23 24  1  0  0  0  0
 20 22  1  0  0  0  0
 21 23  1  0  0  0  0
 22 23  1  0  0  0  0
 19 25  1  0  0  0  0
 19 26  1  0  0  0  0
 19 27  1  0  0  0  0
 25 28  1  0  0  0  0
 28 29  1  0  0  0  0
 26 30  1  0  0  0  0
 30 29  1  0  0  0  0
 27 31  1  0  0  0  0
 31 29  1  0  0  0  0
 29 32  1  0  0  0  0
 33 34  1  0  0  0  0
 33 35  2  0  0  0  0
 34 36  2  0  0  0  0
 35 37  1  0  0  0  0
 36 38  1  0  0  0  0
 37 38  2  0  0  0  0
 27 33  1  0  0  0  0
 39 40  1  0  0  0  0
 39 41  2  0  0  0  0
 40 42  2  0  0  0  0
 41 43  1  0  0  0  0
 42 44  1  0  0  0  0
 43 44  2  0  0  0  0
 26 39  1  0  0  0  0
 45 46  1  0  0  0  0
 45 47  2  0  0  0  0
 46 48  2  0  0  0  0
 47 49  1  0  0  0  0
 48 50  1  0  0  0  0
 49 50  2  0  0  0  0
 25 45  1  0  0  0  0
 22 51  1  0  0  0  0
 24 52  1  0  0  0  0
 23 53  1  0  0  0  0
 54 55  1  0  0  0  0
 54 56  2  0  0  0  0
 55 57  2  0  0  0  0
 56 58  1  0  0  0  0
 57 59  1  0  0  0  0
 58 59  2  0  0  0  0
 53 54  1  0  0  0  0
 60 61  1  0  0  0  0
 60 62  2  0  0  0  0
 61 63  2  0  0  0  0
 62 64  1  0  0  0  0
 63 65  1  0  0  0  0
 64 65  2  0  0  0  0
 53 60  1  0  0  0  0
 66 67  1  0  0  0  0
 66 68  2  0  0  0  0
 67 69  2  0  0  0  0
 68 70  1  0  0  0  0
 69 71  1  0  0  0  0
 70 71  2  0  0  0  0
 52 66  1  0  0  0  0
 72 73  1  0  0  0  0
 72 74  2  0  0  0  0
 73 75  2  0  0  0  0
 74 76  1  0  0  0  0
 75 77  1  0  0  0  0
 76 77  2  0  0  0  0
 52 72  1  0  0  0  0
 78 79  1  0  0  0  0
 78 80  2  0  0  0  0
 79 81  2  0  0  0  0
 80 82  1  0  0  0  0
 81 83  1  0  0  0  0
 82 83  2  0  0  0  0
 51 78  1  0  0  0  0
 84 85  1  0  0  0  0
 84 86  2  0  0  0  0
 85 87  2  0  0  0  0
 86 88  1  0  0  0  0
 87 89  1  0  0  0  0
 88 89  2  0  0  0  0
 51 84  1  0  0  0  0
 13 51  1  0  0  0  0
  9 52  1  0  0  0  0
  5 53  1  0  0  0  0
 90 91  1  0  0  0  0
 90 92  1  0  0  0  0
 90 93  1  0  0  0  0
 90 94  1  0  0  0  0
 90 95  1  0  0  0  0
 90 96  1  0  0  0  0
M  END
> <NMREDATA_VERSION>
1.1

> <NMREDATA_LEVEL>
0

> <NMREDATA_SOLVENT>
CD2Cl2

> <NMREDATA_TEMPERATURE>
310

> <NMREDATA_FORMULA>
C77H76Au3F6P7Rh

> <NMREDATA_SMILES>
F[P](F)(F)(F)(F)F.CC12CP(c3ccccc3)[Rh]3456(P(C1)c1ccccc1)(P(C2)c1ccccc1)[H][Au]16([Au]4([Au]51([H]3)P(c1ccccc1)(c1ccccc1)c1ccccc1)P(c1ccccc1)(c1ccccc1)c1ccccc1)P(c1ccccc1)(c1ccccc1)c1ccccc1

> <NMREDATA_ASSIGNMENT>
Rh19, -1090.00, 19

> <NMREDATA_1D_103Rh>
-1090.00, L=Rh19

$$$$
