
  ACD/LABS02122410572D

 11 10  0  0  0  0  0  0  0  0  1 V2000
   22.2274  -11.8979    0.0000 Rh   0  0  0  0  0  0  0  0  0  0  0  0
   24.0315  -10.8563    0.0000 C    0  0  0  0  0  0  0  0  0  0  0  0
   25.8355  -11.8979    0.0000 C    0  0  0  0  0  0  0  0  0  0  0  0
   27.6396  -10.8563    0.0000 C    0  0  0  0  0  0  0  0  0  0  0  0
   29.4436  -11.8979    0.0000 C    0  0  0  0  0  0  0  0  0  0  0  0
   24.0315   -8.7732    0.0000 O    0  0  0  0  0  0  0  0  0  0  0  0
   27.6396   -8.7732    0.0000 O    0  0  0  0  0  0  0  0  0  0  0  0
   20.4234  -10.8563    0.0000 C    0  0  0  0  0  0  0  0  0  0  0  0
   22.2274  -13.9810    0.0000 C    0  0  0  0  0  0  0  0  0  0  0  0
   20.4234  -15.0226    0.0000 C    0  0  0  0  0  0  0  0  0  0  0  0
   20.4234   -8.7732    0.0000 C    0  0  0  0  0  0  0  0  0  0  0  0
  1  2  1  0  0  0  0
  2  3  1  0  0  0  0
  3  4  1  0  0  0  0
  4  5  1  0  0  0  0
  2  6  2  0  0  0  0
  4  7  2  0  0  0  0
  1  8  2  0  0  0  0
  1  9  2  0  0  0  0
  9 10  1  0  0  0  0
  8 11  1  0  0  0  0
M  END
> <NMREDATA_VERSION>
1.1

> <NMREDATA_LEVEL>
0

> <NMREDATA_SOLVENT>
CD2Cl2

> <NMREDATA_TEMPERATURE>
298

> <NMREDATA_FORMULA>
C8H13O2Rh

> <NMREDATA_SMILES>
C/C=[Rh](=C\C)/C(=O)CC(=O)C

> <NMREDATA_ASSIGNMENT>
Rh1, 1180.70, 1

> <NMREDATA_1D_103Rh>
1180.70, L=Rh1

$$$$
