
  ACD/LABS03292413312D

 67 76  0  0  0  0  0  0  0  0  1 V2000
   18.0822   -6.8965    0.0000 C    0  0  0  0  0  0  0  0  0  0  0  0
   16.7694   -7.1270    0.0000 C    0  0  0  0  0  0  0  0  0  0  0  0
   18.9333   -7.9164    0.0000 C    0  0  0  0  0  0  0  0  0  0  0  0
   16.3173   -8.3774    0.0000 C    0  0  0  0  0  0  0  0  0  0  0  0
   18.4812   -9.1668    0.0000 C    0  0  0  0  0  0  0  0  0  0  0  0
   17.1687   -9.3973    0.0000 C    0  0  0  0  0  0  0  0  0  0  0  0
   11.0852   -7.9164    0.0000 C    0  0  0  0  0  0  0  0  0  0  0  0
   11.9367   -6.8965    0.0000 C    0  0  0  0  0  0  0  0  0  0  0  0
   11.5377   -9.1668    0.0000 C    0  0  0  0  0  0  0  0  0  0  0  0
   13.2398   -7.1270    0.0000 C    0  0  0  0  0  0  0  0  0  0  0  0
   12.8409   -9.3973    0.0000 C    0  0  0  0  0  0  0  0  0  0  0  0
   13.6924   -8.3774    0.0000 C    0  0  0  0  0  0  0  0  0  0  0  0
   15.0048   -4.6085    0.0000 C    0  0  0  0  0  0  0  0  0  0  0  0
   16.1577   -5.2734    0.0000 C    0  0  0  0  0  0  0  0  0  0  0  0
   13.8519   -5.2734    0.0000 C    0  0  0  0  0  0  0  0  0  0  0  0
   16.1577   -6.6039    0.0000 C    0  0  0  0  0  0  0  0  0  0  0  0
   13.8519   -6.6039    0.0000 C    0  0  0  0  0  0  0  0  0  0  0  0
   15.0048   -7.2688    0.0000 C    0  0  0  0  0  0  0  0  0  0  0  0
    7.0588  -15.1705    0.0000 C    0  0  0  0  0  0  0  0  0  0  0  0
    6.0393  -14.3102    0.0000 C    0  0  0  0  0  0  0  0  0  0  0  0
    8.3096  -14.7091    0.0000 C    0  0  0  0  0  0  0  0  0  0  0  0
    6.2609  -13.0066    0.0000 C    0  0  0  0  0  0  0  0  0  0  0  0
    8.5312  -13.3967    0.0000 C    0  0  0  0  0  0  0  0  0  0  0  0
    7.5113  -12.5452    0.0000 C    0  0  0  0  0  0  0  0  0  0  0  0
    7.5557  -10.2221    0.0000 C    0  0  0  0  0  0  0  0  0  0  0  0
    8.4160   -9.2022    0.0000 C    0  0  0  0  0  0  0  0  0  0  0  0
    8.0166  -11.4633    0.0000 C    0  0  0  0  0  0  0  0  0  0  0  0
    9.7196   -9.4327    0.0000 C    0  0  0  0  0  0  0  0  0  0  0  0
    9.3295  -11.6938    0.0000 C    0  0  0  0  0  0  0  0  0  0  0  0
   10.1805  -10.6831    0.0000 C    0  0  0  0  0  0  0  0  0  0  0  0
   11.5555  -14.4166    0.0000 C    0  0  0  0  0  0  0  0  0  0  0  0
   12.0076  -15.6670    0.0000 C    0  0  0  0  0  0  0  0  0  0  0  0
   10.2426  -14.1949    0.0000 C    0  0  0  0  0  0  0  0  0  0  0  0
   11.1561  -16.6869    0.0000 C    0  0  0  0  0  0  0  0  0  0  0  0
    9.3915  -15.2148    0.0000 C    0  0  0  0  0  0  0  0  0  0  0  0
    9.8437  -16.4652    0.0000 C    0  0  0  0  0  0  0  0  0  0  0  0
   15.7942  -14.9843    0.0000 C    0  0  0  0  0  0  0  0  0  0  0  0
   15.5722  -16.2968    0.0000 C    0  0  0  0  0  0  0  0  0  0  0  0
   14.7743  -14.1329    0.0000 C    0  0  0  0  0  0  0  0  0  0  0  0
   14.3218  -16.7578    0.0000 C    0  0  0  0  0  0  0  0  0  0  0  0
   13.5235  -14.5939    0.0000 C    0  0  0  0  0  0  0  0  0  0  0  0
   13.3019  -15.8975    0.0000 C    0  0  0  0  0  0  0  0  0  0  0  0
   13.6924  -12.5984    0.0000 C    0  0  0  0  0  0  0  0  0  0  0  0
   13.2398  -11.3480    0.0000 C    0  0  0  0  0  0  0  0  0  0  0  0
   12.8409  -13.6183    0.0000 C    0  0  0  0  0  0  0  0  0  0  0  0
   11.9367  -11.1175    0.0000 C    0  0  0  0  0  0  0  0  0  0  0  0
   11.5377  -13.3878    0.0000 C    0  0  0  0  0  0  0  0  0  0  0  0
   11.0852  -12.1374    0.0000 C    0  0  0  0  0  0  0  0  0  0  0  0
   16.3173  -13.0509    0.0000 C    0  0  0  0  0  0  0  0  0  0  0  0
   16.7694  -14.3013    0.0000 C    0  0  0  0  0  0  0  0  0  0  0  0
   17.1687  -12.0310    0.0000 C    0  0  0  0  0  0  0  0  0  0  0  0
   18.0822  -14.5318    0.0000 C    0  0  0  0  0  0  0  0  0  0  0  0
   18.4812  -12.2615    0.0000 C    0  0  0  0  0  0  0  0  0  0  0  0
   18.9333  -13.5119    0.0000 C    0  0  0  0  0  0  0  0  0  0  0  0
   15.0048   -9.9296    0.0000 Rh   0  0  0  0  0  0  0  0  0  0  0  0
   16.1577   -9.2643    0.0000 S    0  0  0  0  0  0  0  0  0  0  0  0
   13.8519   -9.2643    0.0000 H    0  0  0  0  0  0  0  0  0  0  0  0
   16.1577  -10.5945    0.0000 H    0  0  0  0  0  0  0  0  0  0  0  0
   15.0048   -8.5994    0.0000 P    0  0  0  0  0  0  0  0  0  0  0  0
    9.7816  -12.9446    0.0000 P    0  0  0  0  0  0  0  0  0  0  0  0
   15.0048  -12.8200    0.0000 P    0  0  0  0  0  0  0  0  0  0  0  0
   17.3094   -9.9295    0.0000 C    0  0  0  0  0  0  0  0  0  0  0  0
   18.4613   -9.2648    0.0000 C    0  0  0  0  0  0  0  0  0  0  0  0
   17.3091  -11.2596    0.0000 C    0  0  0  0  0  0  0  0  0  0  0  0
   19.6130   -9.9301    0.0000 C    0  0  0  0  0  0  0  0  0  0  0  0
   18.4608  -11.9249    0.0000 C    0  0  0  0  0  0  0  0  0  0  0  0
   19.6127  -11.2601    0.0000 C    0  0  0  0  0  0  0  0  0  0  0  0
  1  2  1  0  0  0  0
  1  3  2  0  0  0  0
  2  4  2  0  0  0  0
  3  5  1  0  0  0  0
  4  6  1  0  0  0  0
  5  6  2  0  0  0  0
  7  8  1  0  0  0  0
  7  9  2  0  0  0  0
  8 10  2  0  0  0  0
  9 11  1  0  0  0  0
 10 12  1  0  0  0  0
 11 12  2  0  0  0  0
 13 14  1  0  0  0  0
 13 15  2  0  0  0  0
 14 16  2  0  0  0  0
 15 17  1  0  0  0  0
 16 18  1  0  0  0  0
 17 18  2  0  0  0  0
 19 20  1  0  0  0  0
 19 21  2  0  0  0  0
 20 22  2  0  0  0  0
 21 23  1  0  0  0  0
 22 24  1  0  0  0  0
 23 24  2  0  0  0  0
 25 26  1  0  0  0  0
 25 27  2  0  0  0  0
 26 28  2  0  0  0  0
 27 29  1  0  0  0  0
 28 30  1  0  0  0  0
 29 30  2  0  0  0  0
 31 32  1  0  0  0  0
 31 33  2  0  0  0  0
 32 34  2  0  0  0  0
 33 35  1  0  0  0  0
 34 36  1  0  0  0  0
 35 36  2  0  0  0  0
 37 38  1  0  0  0  0
 37 39  2  0  0  0  0
 38 40  2  0  0  0  0
 39 41  1  0  0  0  0
 40 42  1  0  0  0  0
 41 42  2  0  0  0  0
 43 44  1  0  0  0  0
 43 45  2  0  0  0  0
 44 46  2  0  0  0  0
 45 47  1  0  0  0  0
 46 48  1  0  0  0  0
 47 48  2  0  0  0  0
 49 50  1  0  0  0  0
 49 51  2  0  0  0  0
 50 52  2  0  0  0  0
 51 53  1  0  0  0  0
 52 54  1  0  0  0  0
 53 54  2  0  0  0  0
 55 56  1  0  0  0  0
 55 57  1  0  0  0  0
 55 58  1  0  0  0  0
 55 59  1  0  0  0  0
 55 60  1  0  0  0  0
 55 61  1  0  0  0  0
 49 61  1  0  0  0  0
 43 61  1  0  0  0  0
 39 61  1  0  0  0  0
 33 60  1  0  0  0  0
 29 60  1  0  0  0  0
 23 60  1  0  0  0  0
 18 59  1  0  0  0  0
 12 59  1  0  0  0  0
  4 59  1  0  0  0  0
 62 63  1  0  0  0  0
 62 64  1  0  0  0  0
 63 65  1  0  0  0  0
 64 66  1  0  0  0  0
 65 67  1  0  0  0  0
 66 67  1  0  0  0  0
 56 62  1  0  0  0  0
M  END
> <NMREDATA_VERSION>
1.1

> <NMREDATA_LEVEL>
0

> <NMREDATA_SOLVENT>
toluene-d8

> <NMREDATA_TEMPERATURE>
248

> <NMREDATA_FORMULA>
C60H61P3RhS

> <NMREDATA_SMILES>
C1CCC(CC1)S[RhH2](P(c1ccccc1)(c1ccccc1)c1ccccc1)(P(c1ccccc1)(c1ccccc1)c1ccccc1)P(c1ccccc1)(c1ccccc1)c1ccccc1

> <NMREDATA_ASSIGNMENT>
Rh55, -340.00, 55

> <NMREDATA_1D_103Rh>
-340.00, L=Rh55

$$$$
