
  ACD/LABS03282419122D

 62 70  0  0  0  0  0  0  0  0  1 V2000
   15.7494  -12.7571    0.0000 C    0  0  0  0  0  0  0  0  0  0  0  0
   14.8929  -13.7792    0.0000 C    0  0  0  0  0  0  0  0  0  0  0  0
   17.0516  -12.9864    0.0000 C    0  0  0  0  0  0  0  0  0  0  0  0
   15.3508  -15.0272    0.0000 C    0  0  0  0  0  0  0  0  0  0  0  0
   17.5172  -14.2390    0.0000 C    0  0  0  0  0  0  0  0  0  0  0  0
   16.6609  -15.2606    0.0000 C    0  0  0  0  0  0  0  0  0  0  0  0
   18.9209  -11.1151    0.0000 C    0  0  0  0  0  0  0  0  0  0  0  0
   18.6856   -9.8008    0.0000 C    0  0  0  0  0  0  0  0  0  0  0  0
   20.1782  -11.5642    0.0000 C    0  0  0  0  0  0  0  0  0  0  0  0
   19.7035   -8.9436    0.0000 C    0  0  0  0  0  0  0  0  0  0  0  0
   21.1957  -10.7068    0.0000 C    0  0  0  0  0  0  0  0  0  0  0  0
   20.9559   -9.4003    0.0000 C    0  0  0  0  0  0  0  0  0  0  0  0
   18.9256  -12.8287    0.0000 C    0  0  0  0  0  0  0  0  0  0  0  0
   20.1735  -12.3712    0.0000 C    0  0  0  0  0  0  0  0  0  0  0  0
   18.7044  -14.1349    0.0000 C    0  0  0  0  0  0  0  0  0  0  0  0
   21.1955  -13.2277    0.0000 C    0  0  0  0  0  0  0  0  0  0  0  0
   19.7229  -14.9795    0.0000 C    0  0  0  0  0  0  0  0  0  0  0  0
   20.9736  -14.5341    0.0000 C    0  0  0  0  0  0  0  0  0  0  0  0
   12.1607   -7.7040    0.0000 C    0  0  0  0  0  0  0  0  0  0  0  0
   11.0842   -8.4863    0.0000 C    0  0  0  0  0  0  0  0  0  0  0  0
   12.0213   -6.3837    0.0000 C    0  0  0  0  0  0  0  0  0  0  0  0
    9.8681   -7.9478    0.0000 C    0  0  0  0  0  0  0  0  0  0  0  0
   10.8101   -5.8377    0.0000 C    0  0  0  0  0  0  0  0  0  0  0  0
    9.7287   -6.6276    0.0000 C    0  0  0  0  0  0  0  0  0  0  0  0
   15.6772  -10.1133    0.0000 Rh   0  0  0  0  0  0  0  0  0  0  0  0
   15.1824  -11.3437    0.0000 C    0  0  0  0  0  0  0  0  0  0  0  0
   14.6872  -12.5739    0.0000 N    0  0  0  0  0  0  0  0  0  0  0  0
   15.3653   -8.8265    0.0000 P    0  0  0  0  0  0  0  0  0  0  0  0
   11.2316   -9.8106    0.0000 P    0  0  0  0  0  0  0  0  0  0  0  0
   17.9036  -11.9721    0.0000 P    0  0  0  0  0  0  0  0  0  0  0  0
   17.9270   -6.4118    0.0000 C    0  0  0  0  0  0  0  0  0  0  0  0
   16.7176   -6.9637    0.0000 C    0  0  0  0  0  0  0  0  0  0  0  0
   19.0011   -7.1960    0.0000 C    0  0  0  0  0  0  0  0  0  0  0  0
   16.5706   -8.2826    0.0000 C    0  0  0  0  0  0  0  0  0  0  0  0
   18.8619   -8.5195    0.0000 C    0  0  0  0  0  0  0  0  0  0  0  0
   17.6488   -9.0589    0.0000 C    0  0  0  0  0  0  0  0  0  0  0  0
   11.8531   -9.1245    0.0000 C    0  0  0  0  0  0  0  0  0  0  0  0
   13.0662   -8.5851    0.0000 C    0  0  0  0  0  0  0  0  0  0  0  0
   11.7186  -10.4398    0.0000 C    0  0  0  0  0  0  0  0  0  0  0  0
   14.1522   -9.3659    0.0000 C    0  0  0  0  0  0  0  0  0  0  0  0
   12.7927  -11.2241    0.0000 C    0  0  0  0  0  0  0  0  0  0  0  0
   14.0136  -10.6892    0.0000 C    0  0  0  0  0  0  0  0  0  0  0  0
   12.9553   -6.2566    0.0000 C    0  0  0  0  0  0  0  0  0  0  0  0
   13.4947   -7.4697    0.0000 C    0  0  0  0  0  0  0  0  0  0  0  0
   13.7393   -5.1829    0.0000 C    0  0  0  0  0  0  0  0  0  0  0  0
   14.8181   -7.6090    0.0000 C    0  0  0  0  0  0  0  0  0  0  0  0
   15.0630   -5.3218    0.0000 C    0  0  0  0  0  0  0  0  0  0  0  0
   15.6024   -6.5348    0.0000 C    0  0  0  0  0  0  0  0  0  0  0  0
    9.7505  -14.6115    0.0000 C    0  0  0  0  0  0  0  0  0  0  0  0
    9.8379  -13.2888    0.0000 C    0  0  0  0  0  0  0  0  0  0  0  0
   10.8469  -15.3572    0.0000 C    0  0  0  0  0  0  0  0  0  0  0  0
   11.0306  -12.6966    0.0000 C    0  0  0  0  0  0  0  0  0  0  0  0
   12.0469  -14.7693    0.0000 C    0  0  0  0  0  0  0  0  0  0  0  0
   12.1387  -13.4391    0.0000 C    0  0  0  0  0  0  0  0  0  0  0  0
    9.3131   -8.5186    0.0000 C    0  0  0  0  0  0  0  0  0  0  0  0
    9.9011   -9.7187    0.0000 C    0  0  0  0  0  0  0  0  0  0  0  0
    7.9908   -8.4314    0.0000 C    0  0  0  0  0  0  0  0  0  0  0  0
    9.1634  -10.8192    0.0000 C    0  0  0  0  0  0  0  0  0  0  0  0
    7.2408   -9.5352    0.0000 C    0  0  0  0  0  0  0  0  0  0  0  0
    7.8332  -10.7275    0.0000 C    0  0  0  0  0  0  0  0  0  0  0  0
   16.9122   -9.6069    0.0000 O    0  0  0  0  0  0  0  0  0  0  0  0
   17.9643  -10.4294    0.0000 O    0  0  0  0  0  0  0  0  0  0  0  0
  1  2  1  0  0  0  0
  1  3  2  0  0  0  0
  2  4  2  0  0  0  0
  3  5  1  0  0  0  0
  4  6  1  0  0  0  0
  5  6  2  0  0  0  0
  7  8  1  0  0  0  0
  7  9  2  0  0  0  0
  8 10  2  0  0  0  0
  9 11  1  0  0  0  0
 10 12  1  0  0  0  0
 11 12  2  0  0  0  0
 13 14  1  0  0  0  0
 13 15  2  0  0  0  0
 14 16  2  0  0  0  0
 15 17  1  0  0  0  0
 16 18  1  0  0  0  0
 17 18  2  0  0  0  0
 19 20  1  0  0  0  0
 19 21  2  0  0  0  0
 20 22  2  0  0  0  0
 21 23  1  0  0  0  0
 22 24  1  0  0  0  0
 23 24  2  0  0  0  0
 26 27  3  0  0  0  0
 25 26  1  0  0  0  0
 25 28  1  0  0  0  0
 25 29  1  0  0  0  0
 25 30  1  0  0  0  0
 31 32  1  0  0  0  0
 31 33  2  0  0  0  0
 32 34  2  0  0  0  0
 33 35  1  0  0  0  0
 34 36  1  0  0  0  0
 35 36  2  0  0  0  0
 28 34  1  0  0  0  0
 37 38  1  0  0  0  0
 37 39  2  0  0  0  0
 38 40  2  0  0  0  0
 39 41  1  0  0  0  0
 40 42  1  0  0  0  0
 41 42  2  0  0  0  0
 28 40  1  0  0  0  0
 43 44  1  0  0  0  0
 43 45  2  0  0  0  0
 44 46  2  0  0  0  0
 45 47  1  0  0  0  0
 46 48  1  0  0  0  0
 47 48  2  0  0  0  0
 28 46  1  0  0  0  0
 49 50  1  0  0  0  0
 49 51  2  0  0  0  0
 50 52  2  0  0  0  0
 51 53  1  0  0  0  0
 52 54  1  0  0  0  0
 53 54  2  0  0  0  0
 29 52  1  0  0  0  0
 55 56  1  0  0  0  0
 55 57  2  0  0  0  0
 56 58  2  0  0  0  0
 57 59  1  0  0  0  0
 58 60  1  0  0  0  0
 59 60  2  0  0  0  0
 29 56  1  0  0  0  0
 20 29  1  0  0  0  0
 13 30  1  0  0  0  0
  7 30  1  0  0  0  0
  3 30  1  0  0  0  0
 25 61  1  0  0  0  0
 61 62  2  0  0  0  0
M  END
> <NMREDATA_VERSION>
1.1

> <NMREDATA_LEVEL>
0

> <NMREDATA_SOLVENT>
DCCl3

> <NMREDATA_TEMPERATURE>
300

> <NMREDATA_FORMULA>
C55H48NO2P3Rh

> <NMREDATA_SMILES>
O=[O][Rh](P(c1ccccc1)(c1ccccc1)c1ccccc1)(P(c1ccccc1)(c1ccccc1)c1ccccc1)(P(c1ccccc1)(c1ccccc1)c1ccccc1)C#N

> <NMREDATA_ASSIGNMENT>
Rh25, 1716.00, 25

> <NMREDATA_1D_103Rh>
1716.00, L=Rh25

$$$$
