
  ACD/LABS02232411462D

 43 47  0  0  0  0  0  0  0  0  2 V2000
   26.3757   -7.6364    0.0000 F    0  0  0  0  0  0  0  0  0  0  0  0
   27.0968   -8.8854    0.0000 B    0  5  0  0  0  0  0  0  0  0  0  0
   28.3457   -8.1643    0.0000 F    0  0  0  0  0  0  0  0  0  0  0  0
   25.8478   -9.6064    0.0000 F    0  0  0  0  0  0  0  0  0  0  0  0
   27.8178  -10.1343    0.0000 F    0  0  0  0  0  0  0  0  0  0  0  0
   10.8172  -12.7734    0.0000 C    0  0  0  0  0  0  0  0  0  0  0  0
   11.2561  -13.2100    0.0000 C    0  0  0  0  0  0  0  0  0  0  0  0
   12.0100  -12.2333    0.0000 C    0  0  0  0  0  0  0  0  0  0  0  0
   13.2519  -12.2350    0.0000 C    0  0  0  0  0  0  0  0  0  0  0  0
   13.2517  -11.6121    0.0000 C    0  0  0  0  0  0  0  0  0  0  0  0
   11.5711  -11.7967    0.0000 C    0  0  0  0  0  0  0  0  0  0  0  0
   11.6592  -11.0366    0.0000 C    0  0  0  0  0  0  0  0  0  0  0  0
   22.9959  -17.3790    0.0000 C    0  0  0  0  0  0  0  0  0  0  0  0
   23.8582  -16.3756    0.0000 C    0  0  0  0  0  0  0  0  0  0  0  0
   21.6888  -17.1286    0.0000 C    0  0  0  0  0  0  0  0  0  0  0  0
   23.4221  -15.1191    0.0000 C    0  0  0  0  0  0  0  0  0  0  0  0
   21.2526  -15.8722    0.0000 C    0  0  0  0  0  0  0  0  0  0  0  0
   22.1235  -14.8658    0.0000 C    0  0  0  0  0  0  0  0  0  0  0  0
   22.1136  -11.3498    0.0000 C    0  0  0  0  0  0  0  0  0  0  0  0
   22.9876  -10.3523    0.0000 C    0  0  0  0  0  0  0  0  0  0  0  0
   22.5498  -12.6062    0.0000 C    0  0  0  0  0  0  0  0  0  0  0  0
   24.2916  -10.5937    0.0000 C    0  0  0  0  0  0  0  0  0  0  0  0
   23.8568  -12.8562    0.0000 C    0  0  0  0  0  0  0  0  0  0  0  0
   24.7277  -11.8502    0.0000 C    0  0  0  0  0  0  0  0  0  0  0  0
   16.3998   -6.8664    0.0000 C    0  0  0  0  0  0  0  0  0  0  0  0
   16.1494   -8.1736    0.0000 C    0  0  0  0  0  0  0  0  0  0  0  0
   17.6562   -6.4303    0.0000 C    0  0  0  0  0  0  0  0  0  0  0  0
   17.1558   -9.0444    0.0000 C    0  0  0  0  0  0  0  0  0  0  0  0
   18.6537   -7.3042    0.0000 C    0  0  0  0  0  0  0  0  0  0  0  0
   18.4123   -8.6083    0.0000 C    0  0  0  0  0  0  0  0  0  0  0  0
   17.6615  -12.5296    0.0000 C    0  0  0  0  0  0  0  0  0  0  0  0
   17.4083  -13.8276    0.0000 C    0  0  0  0  0  0  0  0  0  0  0  0
   16.6554  -11.6586    0.0000 C    0  0  0  0  0  0  0  0  0  0  0  0
   16.1519  -14.2638    0.0000 C    0  0  0  0  0  0  0  0  0  0  0  0
   15.3989  -12.0947    0.0000 C    0  0  0  0  0  0  0  0  0  0  0  0
   15.1486  -13.4019    0.0000 C    0  0  0  0  0  0  0  0  0  0  0  0
   13.1388   -9.6305    0.0000 Rh   0  3  0  0  0  0  0  0  0  0  0  0
   16.9054  -10.3516    0.0000 P    0  0  0  0  0  0  0  0  0  0  0  0
   18.2126  -10.6020    0.0000 C    0  0  0  0  0  0  0  0  0  0  0  0
   18.6487  -11.8584    0.0000 C    0  0  0  0  0  0  0  0  0  0  0  0
   19.9442  -12.1028    0.0000 C    0  0  0  0  0  0  0  0  0  0  0  0
   20.3803  -13.3593    0.0000 C    0  0  0  0  0  0  0  0  0  0  0  0
   21.6873  -13.6093    0.0000 P    0  0  0  0  0  0  0  0  0  0  0  0
  1  2  1  0  0  0  0
  2  3  1  0  0  0  0
  2  4  1  0  0  0  0
  2  5  1  0  0  0  0
  6  7  2  0  0  0  0
  7  8  1  0  0  0  0
  8  9  1  0  0  0  0
  9 10  2  0  0  0  0
 10 11  1  0  0  0  0
 11  6  1  0  0  0  0
 11 12  1  0  0  0  0
 12  8  1  0  0  0  0
 13 14  1  0  0  0  0
 13 15  2  0  0  0  0
 14 16  2  0  0  0  0
 15 17  1  0  0  0  0
 16 18  1  0  0  0  0
 17 18  2  0  0  0  0
 19 20  1  0  0  0  0
 19 21  2  0  0  0  0
 20 22  2  0  0  0  0
 21 23  1  0  0  0  0
 22 24  1  0  0  0  0
 23 24  2  0  0  0  0
 25 26  1  0  0  0  0
 25 27  2  0  0  0  0
 26 28  2  0  0  0  0
 27 29  1  0  0  0  0
 28 30  1  0  0  0  0
 29 30  2  0  0  0  0
 31 32  1  0  0  0  0
 31 33  2  0  0  0  0
 32 34  2  0  0  0  0
 33 35  1  0  0  0  0
 34 36  1  0  0  0  0
 35 36  2  0  0  0  0
 37 38  1  0  0  0  0
 33 38  1  0  0  0  0
 28 38  1  0  0  0  0
 38 39  1  0  0  0  0
 39 40  1  0  0  0  0
 40 41  1  0  0  0  0
 41 42  1  0  0  0  0
 42 43  1  0  0  0  0
 21 43  1  0  0  0  0
 18 43  1  0  0  0  0
 12 37  1  0  0  0  0
M  END
> <NMREDATA_VERSION>
1.1

> <NMREDATA_LEVEL>
0

> <NMREDATA_SOLVENT>
CD3OD

> <NMREDATA_TEMPERATURE>
298

> <NMREDATA_FORMULA>
C35H36BF4P2Rh

> <NMREDATA_SMILES>
c1ccc(cc1)P(c1ccccc1)CCCCP(c1ccccc1)(c1ccccc1)[Rh]C1C2C=CC1C=C2.F[B](F)(F)F

> <NMREDATA_ASSIGNMENT>
Rh37, -210.00, 37

> <NMREDATA_1D_103Rh>
-210.00, L=Rh37

$$$$
