
  ACD/LABS04032410362D

 19 17  0  0  0  0  0  0  0  0  2 V2000
   11.5849  -15.4219    0.0000 Rh   0  0  0  0  0  0  0  0  0  0  0  0
   10.6161  -14.4351    0.0000 Cl   0  0  0  0  0  0  0  0  0  0  0  0
   13.2310  -17.0465    0.0000 Cl   0  0  0  0  0  0  0  0  0  0  0  0
   13.5813  -15.6279    0.0000 S    0  0  0  0  0  0  0  0  0  0  0  0
   10.9635  -17.1341    0.0000 S    0  0  0  0  0  0  0  0  0  0  0  0
   12.6623  -14.0703    0.0000 S    0  0  0  0  0  0  0  0  0  0  0  0
   10.1267  -17.6523    0.0000 C    0  0  0  0  0  0  0  0  0  0  0  0
   10.8262  -18.0025    0.0000 C    0  0  0  0  0  0  0  0  0  0  0  0
   14.3072  -13.8724    0.0000 C    0  0  0  0  0  0  0  0  0  0  0  0
   12.9642  -12.9657    0.0000 C    0  0  0  0  0  0  0  0  0  0  0  0
   15.1428  -16.2324    0.0000 C    0  0  0  0  0  0  0  0  0  0  0  0
   14.7101  -15.1908    0.0000 C    0  0  0  0  0  0  0  0  0  0  0  0
    9.8548  -15.9280    0.0000 S    0  0  0  0  0  0  0  0  0  0  0  0
    9.2299  -15.1588    0.0000 C    0  0  0  0  0  0  0  0  0  0  0  0
    9.0376  -16.5208    0.0000 C    0  0  0  0  0  0  0  0  0  0  0  0
   22.5179  -17.5143    0.0000 N    0  0  0  0  0  0  0  0  0  0  0  0
   23.1829  -18.6661    0.0000 O    0  5  0  0  0  0  0  0  0  0  0  0
   23.1829  -16.3625    0.0000 O    0  0  0  0  0  0  0  0  0  0  0  0
   21.2480  -18.1713    0.0000 O    0  0  0  0  0  0  0  0  0  0  0  0
  1  2  1  0  0  0  0
  1  3  1  0  0  0  0
  1  4  1  0  0  0  0
  1  5  1  0  0  0  0
  1  6  1  0  0  0  0
  5  7  1  0  0  0  0
  5  8  1  0  0  0  0
  6  9  1  0  0  0  0
  6 10  1  0  0  0  0
  4 11  1  0  0  0  0
  4 12  1  0  0  0  0
  1 13  1  0  0  0  0
 13 14  1  0  0  0  0
 13 15  1  0  0  0  0
 16 17  1  0  0  0  0
 16 18  2  0  0  0  0
 16 19  2  0  0  0  0
M  END
> <NMREDATA_VERSION>
1.1

> <NMREDATA_LEVEL>
0

> <NMREDATA_SOLVENT>
nitromethane

> <NMREDATA_FORMULA>
C8H29Cl2NO3RhS4

> <NMREDATA_SMILES>
CS([Rh](S(C)C)(S(C)C)(S(C)C)(Cl)Cl)C.ON(=O)=O

> <NMREDATA_ASSIGNMENT>
Rh1, 3081.00, 1

> <NMREDATA_1D_103Rh>
3081.00, L=Rh1

$$$$
