
  ACD/LABS03282419372D

 50 56  0  0  0  0  0  0  0  0  2 V2000
   13.5206  -17.3740    0.0000 C    0  0  0  0  0  0  0  0  0  0  0  0
   14.7758  -17.8274    0.0000 C    0  0  0  0  0  0  0  0  0  0  0  0
   13.2872  -16.0647    0.0000 C    0  0  0  0  0  0  0  0  0  0  0  0
   15.7930  -16.9634    0.0000 C    0  0  0  0  0  0  0  0  0  0  0  0
   14.3040  -15.2009    0.0000 N    0  0  0  0  0  0  0  0  0  0  0  0
   15.5595  -15.6541    0.0000 C    0  0  0  0  0  0  0  0  0  0  0  0
   11.8366   -7.9819    0.0000 C    0  0  0  0  0  0  0  0  0  0  0  0
   12.8534   -7.1181    0.0000 C    0  0  0  0  0  0  0  0  0  0  0  0
   12.0701   -9.2912    0.0000 C    0  0  0  0  0  0  0  0  0  0  0  0
   14.1010   -7.5759    0.0000 C    0  0  0  0  0  0  0  0  0  0  0  0
   13.3207   -9.7366    0.0000 C    0  0  0  0  0  0  0  0  0  0  0  0
   14.3424   -8.8807    0.0000 C    0  0  0  0  0  0  0  0  0  0  0  0
   11.3934  -10.2656    0.0000 C    0  0  0  0  0  0  0  0  0  0  0  0
   10.0764  -10.5035    0.0000 C    0  0  0  0  0  0  0  0  0  0  0  0
   12.2494  -11.2874    0.0000 C    0  0  0  0  0  0  0  0  0  0  0  0
    9.6307  -11.7543    0.0000 C    0  0  0  0  0  0  0  0  0  0  0  0
   11.8039  -12.5380    0.0000 C    0  0  0  0  0  0  0  0  0  0  0  0
   10.4870  -12.7758    0.0000 C    0  0  0  0  0  0  0  0  0  0  0  0
   15.3133   -9.5695    0.0000 C    0  0  0  0  0  0  0  0  0  0  0  0
   16.6180   -9.3281    0.0000 C    0  0  0  0  0  0  0  0  0  0  0  0
   14.8635  -10.8125    0.0000 C    0  0  0  0  0  0  0  0  0  0  0  0
   17.4816  -10.3455    0.0000 C    0  0  0  0  0  0  0  0  0  0  0  0
   15.7226  -11.8214    0.0000 C    0  0  0  0  0  0  0  0  0  0  0  0
   17.0240  -11.5925    0.0000 C    0  0  0  0  0  0  0  0  0  0  0  0
   19.9249   -9.5389    0.0000 C    0  0  0  0  0  0  0  0  0  0  0  0
   20.9451  -10.3834    0.0000 C    0  0  0  0  0  0  0  0  0  0  0  0
   20.1449   -8.2343    0.0000 C    0  0  0  0  0  0  0  0  0  0  0  0
   22.1931   -9.9193    0.0000 C    0  0  0  0  0  0  0  0  0  0  0  0
   21.3923   -7.7700    0.0000 C    0  0  0  0  0  0  0  0  0  0  0  0
   22.4201   -8.6101    0.0000 C    0  0  0  0  0  0  0  0  0  0  0  0
   17.1775   -8.2575    0.0000 C    0  0  0  0  0  0  0  0  0  0  0  0
   18.4361   -8.6983    0.0000 C    0  0  0  0  0  0  0  0  0  0  0  0
   16.9365   -6.9526    0.0000 C    0  0  0  0  0  0  0  0  0  0  0  0
   19.4455   -7.8394    0.0000 C    0  0  0  0  0  0  0  0  0  0  0  0
   17.9489   -6.0812    0.0000 C    0  0  0  0  0  0  0  0  0  0  0  0
   19.2000   -6.5268    0.0000 C    0  0  0  0  0  0  0  0  0  0  0  0
   21.4593  -14.1836    0.0000 C    0  0  0  0  0  0  0  0  0  0  0  0
   20.9993  -12.9434    0.0000 C    0  0  0  0  0  0  0  0  0  0  0  0
   20.6113  -15.2160    0.0000 C    0  0  0  0  0  0  0  0  0  0  0  0
   19.6827  -12.7202    0.0000 C    0  0  0  0  0  0  0  0  0  0  0  0
   19.3023  -14.9884    0.0000 C    0  0  0  0  0  0  0  0  0  0  0  0
   18.8378  -13.7406    0.0000 C    0  0  0  0  0  0  0  0  0  0  0  0
   14.0705  -13.8916    0.0000 Rh   0  0  0  0  0  0  0  0  0  0  0  0
   13.0534  -14.7555    0.0000 H    0  0  0  0  0  0  0  0  0  0  0  0
   15.3181  -14.3493    0.0000 H    0  0  0  0  0  0  0  0  0  0  0  0
   13.5585  -11.0536    0.0000 P    0  0  0  0  0  0  0  0  0  0  0  0
   18.6817  -10.0113    0.0000 P    0  0  0  0  0  0  0  0  0  0  0  0
   12.8199  -13.4462    0.0000 N    0  0  0  0  0  0  0  0  0  0  0  0
   11.7982  -14.3021    0.0000 N    0  3  0  0  0  0  0  0  0  0  0  0
   10.7814  -15.1659    0.0000 N    0  5  0  0  0  0  0  0  0  0  0  0
  1  2  1  0  0  0  0
  1  3  2  0  0  0  0
  2  4  2  0  0  0  0
  3  5  1  0  0  0  0
  4  6  1  0  0  0  0
  5  6  2  0  0  0  0
  7  8  1  0  0  0  0
  7  9  2  0  0  0  0
  8 10  2  0  0  0  0
  9 11  1  0  0  0  0
 10 12  1  0  0  0  0
 11 12  2  0  0  0  0
 13 14  1  0  0  0  0
 13 15  2  0  0  0  0
 14 16  2  0  0  0  0
 15 17  1  0  0  0  0
 16 18  1  0  0  0  0
 17 18  2  0  0  0  0
 19 20  1  0  0  0  0
 19 21  2  0  0  0  0
 20 22  2  0  0  0  0
 21 23  1  0  0  0  0
 22 24  1  0  0  0  0
 23 24  2  0  0  0  0
 25 26  1  0  0  0  0
 25 27  2  0  0  0  0
 26 28  2  0  0  0  0
 27 29  1  0  0  0  0
 28 30  1  0  0  0  0
 29 30  2  0  0  0  0
 31 32  1  0  0  0  0
 31 33  2  0  0  0  0
 32 34  2  0  0  0  0
 33 35  1  0  0  0  0
 34 36  1  0  0  0  0
 35 36  2  0  0  0  0
 37 38  1  0  0  0  0
 37 39  2  0  0  0  0
 38 40  2  0  0  0  0
 39 41  1  0  0  0  0
 40 42  1  0  0  0  0
 41 42  2  0  0  0  0
 43 44  1  0  0  0  0
 43 45  1  0  0  0  0
 43 46  1  0  0  0  0
 43 47  1  0  0  0  0
 40 47  1  0  0  0  0
 32 47  1  0  0  0  0
 25 47  1  0  0  0  0
 21 46  1  0  0  0  0
 15 46  1  0  0  0  0
 11 46  1  0  0  0  0
  5 43  1  0  0  0  0
 48 49  2  0  0  0  0
 49 50  2  0  0  0  0
 43 48  1  0  0  0  0
M  END
> <NMREDATA_VERSION>
1.1

> <NMREDATA_LEVEL>
0

> <NMREDATA_SOLVENT>
toluene-d8

> <NMREDATA_TEMPERATURE>
300

> <NMREDATA_FORMULA>
C41H42N4P2Rh

> <NMREDATA_SMILES>
N=N=N[RhH2](P(c1ccccc1)(c1ccccc1)c1ccccc1)(P(c1ccccc1)(c1ccccc1)c1ccccc1)N1=CC=CC=C1

> <NMREDATA_ASSIGNMENT>
Rh43, 566.00, 43

> <NMREDATA_1D_103Rh>
566.00, L=Rh43

$$$$
