
  ACD/LABS04032411182D

 13 12  0  0  0  0  0  0  0  0  1 V2000
   14.5980  -15.3190    0.0000 Rh   0  0  0  0  0  0  0  0  0  0  0  0
   13.7006  -16.9695    0.0000 S    0  0  0  0  0  0  0  0  0  0  0  0
   12.7231  -15.7677    0.0000 S    0  0  0  0  0  0  0  0  0  0  0  0
   16.4728  -14.9505    0.0000 S    0  0  0  0  0  0  0  0  0  0  0  0
   14.1653  -17.9149    0.0000 C    0  0  0  0  0  0  0  0  0  0  0  0
   12.7231  -17.5945    0.0000 C    0  0  0  0  0  0  0  0  0  0  0  0
   12.6430  -16.5849    0.0000 C    0  0  0  0  0  0  0  0  0  0  0  0
   11.7136  -15.8799    0.0000 C    0  0  0  0  0  0  0  0  0  0  0  0
   17.7707  -14.5018    0.0000 C    0  0  0  0  0  0  0  0  0  0  0  0
   17.1778  -13.0276    0.0000 C    0  0  0  0  0  0  0  0  0  0  0  0
   13.7166  -13.5083    0.0000 Br   0  0  0  0  0  0  0  0  0  0  0  0
   12.6430  -14.6300    0.0000 Br   0  0  0  0  0  0  0  0  0  0  0  0
   15.5915  -16.6971    0.0000 Br   0  0  0  0  0  0  0  0  0  0  0  0
  1  2  1  0  0  0  0
  1  3  1  0  0  0  0
  1  4  1  0  0  0  0
  2  5  1  0  0  0  0
  2  6  1  0  0  0  0
  3  7  1  0  0  0  0
  3  8  1  0  0  0  0
  4  9  1  0  0  0  0
  4 10  1  0  0  0  0
  1 11  1  0  0  0  0
  1 12  1  0  0  0  0
  1 13  1  0  0  0  0
M  END
> <NMREDATA_VERSION>
1.1

> <NMREDATA_LEVEL>
0

> <NMREDATA_SOLVENT>
CD2Cl2

> <NMREDATA_FORMULA>
C6H21Br3RhS3

> <NMREDATA_SMILES>
CS([Rh](S(C)C)(S(C)C)(Br)(Br)Br)C

> <NMREDATA_ASSIGNMENT>
Rh1, 3437.00, 1

> <NMREDATA_1D_103Rh>
3437.00, L=Rh1

$$$$
