
  ACD/LABS03112411362D

 42 47  0  0  0  0  0  0  0  0  1 V2000
   16.8234  -10.5679    0.0000 C    0  0  0  0  0  0  0  0  0  0  0  0
   16.8234  -11.8979    0.0000 C    0  0  0  0  0  0  0  0  0  0  0  0
   15.6715   -9.9029    0.0000 C    0  0  0  0  0  0  0  0  0  0  0  0
   15.6715  -12.5629    0.0000 C    0  0  0  0  0  0  0  0  0  0  0  0
   14.5197  -10.5679    0.0000 C    0  0  0  0  0  0  0  0  0  0  0  0
   14.5197  -11.8979    0.0000 C    0  0  0  0  0  0  0  0  0  0  0  0
   18.4899  -13.2119    0.0000 C    0  0  0  0  0  0  0  0  0  0  0  0
   18.4899  -14.5419    0.0000 C    0  0  0  0  0  0  0  0  0  0  0  0
   17.3380  -12.5469    0.0000 C    0  0  0  0  0  0  0  0  0  0  0  0
   17.3380  -15.2069    0.0000 C    0  0  0  0  0  0  0  0  0  0  0  0
   16.1862  -13.2119    0.0000 C    0  0  0  0  0  0  0  0  0  0  0  0
   16.1862  -14.5419    0.0000 C    0  0  0  0  0  0  0  0  0  0  0  0
   17.9611  -16.8814    0.0000 C    0  0  0  0  0  0  0  0  0  0  0  0
   17.9611  -18.2114    0.0000 C    0  0  0  0  0  0  0  0  0  0  0  0
   16.8092  -16.2164    0.0000 C    0  0  0  0  0  0  0  0  0  0  0  0
   16.8092  -18.8764    0.0000 C    0  0  0  0  0  0  0  0  0  0  0  0
   15.6574  -16.8814    0.0000 C    0  0  0  0  0  0  0  0  0  0  0  0
   15.6574  -18.2114    0.0000 C    0  0  0  0  0  0  0  0  0  0  0  0
   11.3271  -19.0607    0.0000 C    0  0  0  0  0  0  0  0  0  0  0  0
   11.3271  -20.3907    0.0000 C    0  0  0  0  0  0  0  0  0  0  0  0
   10.1752  -18.3957    0.0000 C    0  0  0  0  0  0  0  0  0  0  0  0
   10.1752  -21.0557    0.0000 C    0  0  0  0  0  0  0  0  0  0  0  0
    9.0235  -19.0607    0.0000 C    0  0  0  0  0  0  0  0  0  0  0  0
    9.0235  -20.3907    0.0000 C    0  0  0  0  0  0  0  0  0  0  0  0
    8.2505  -18.4357    0.0000 C    0  0  0  0  0  0  0  0  0  0  0  0
    8.2505  -19.7657    0.0000 C    0  0  0  0  0  0  0  0  0  0  0  0
    7.0986  -17.7707    0.0000 C    0  0  0  0  0  0  0  0  0  0  0  0
    7.0986  -20.4307    0.0000 C    0  0  0  0  0  0  0  0  0  0  0  0
    5.9468  -18.4357    0.0000 C    0  0  0  0  0  0  0  0  0  0  0  0
    5.9468  -19.7657    0.0000 C    0  0  0  0  0  0  0  0  0  0  0  0
    7.2570  -16.0161    0.0000 C    0  0  0  0  0  0  0  0  0  0  0  0
    7.2570  -17.3461    0.0000 C    0  0  0  0  0  0  0  0  0  0  0  0
    6.1051  -15.3511    0.0000 C    0  0  0  0  0  0  0  0  0  0  0  0
    6.1051  -18.0111    0.0000 C    0  0  0  0  0  0  0  0  0  0  0  0
    4.9533  -16.0161    0.0000 C    0  0  0  0  0  0  0  0  0  0  0  0
    4.9533  -17.3461    0.0000 C    0  0  0  0  0  0  0  0  0  0  0  0
   11.7136  -15.7196    0.0000 Rh   0  0  0  0  0  0  0  0  0  0  0  0
   13.9249  -14.4698    0.0000 P    0  0  0  0  0  0  0  0  0  0  0  0
   10.0631  -16.6971    0.0000 P    0  0  0  0  0  0  0  0  0  0  0  0
   10.9284  -14.3736    0.0000 Cl   0  0  0  0  0  0  0  0  0  0  0  0
   12.6430  -17.1618    0.0000 C    0  0  0  0  0  0  0  0  0  0  0  0
   13.3481  -18.6040    0.0000 O    0  0  0  0  0  0  0  0  0  0  0  0
  1  2  1  0  0  0  0
  1  3  2  0  0  0  0
  2  4  2  0  0  0  0
  3  5  1  0  0  0  0
  4  6  1  0  0  0  0
  5  6  2  0  0  0  0
  7  8  1  0  0  0  0
  7  9  2  0  0  0  0
  8 10  2  0  0  0  0
  9 11  1  0  0  0  0
 10 12  1  0  0  0  0
 11 12  2  0  0  0  0
 13 14  1  0  0  0  0
 13 15  2  0  0  0  0
 14 16  2  0  0  0  0
 15 17  1  0  0  0  0
 16 18  1  0  0  0  0
 17 18  2  0  0  0  0
 19 20  1  0  0  0  0
 19 21  2  0  0  0  0
 20 22  2  0  0  0  0
 21 23  1  0  0  0  0
 22 24  1  0  0  0  0
 23 24  2  0  0  0  0
 25 26  1  0  0  0  0
 25 27  2  0  0  0  0
 26 28  2  0  0  0  0
 27 29  1  0  0  0  0
 28 30  1  0  0  0  0
 29 30  2  0  0  0  0
 31 32  1  0  0  0  0
 31 33  2  0  0  0  0
 32 34  2  0  0  0  0
 33 35  1  0  0  0  0
 34 36  1  0  0  0  0
 35 36  2  0  0  0  0
 37 38  1  0  0  0  0
 37 39  1  0  0  0  0
 31 39  1  0  0  0  0
 25 39  1  0  0  0  0
 21 39  1  0  0  0  0
 17 38  1  0  0  0  0
 12 38  1  0  0  0  0
  4 38  1  0  0  0  0
 37 40  1  0  0  0  0
 37 41  1  0  0  0  0
 41 42  3  0  0  0  0
M  END
> <NMREDATA_VERSION>
1.1

> <NMREDATA_LEVEL>
0

> <NMREDATA_SOLVENT>
DCCl3

> <NMREDATA_TEMPERATURE>
247

> <NMREDATA_FORMULA>
C37H32ClOP2Rh

> <NMREDATA_SMILES>
[O]#C[Rh](P(c1ccccc1)(c1ccccc1)c1ccccc1)(P(c1ccccc1)(c1ccccc1)c1ccccc1)Cl

> <NMREDATA_ASSIGNMENT>
Rh37, -387.00, 37

> <NMREDATA_1D_103Rh>
-387.00, L=Rh37

$$$$
