
  ACD/LABS02122411002D

 12 12  0  0  0  0  0  0  0  0  1 V2000
   22.0821  -13.5417    0.0000 Rh   0  0  0  0  0  0  0  0  0  0  0  0
   22.6274  -11.5455    0.0000 C    0  0  0  0  0  0  0  0  0  0  0  0
   24.6278  -11.0154    0.0000 C    0  0  0  0  0  0  0  0  0  0  0  0
   25.1661   -9.0065    0.0000 C    0  0  0  0  0  0  0  0  0  0  0  0
   23.6916   -7.5348    0.0000 C    0  0  0  0  0  0  0  0  0  0  0  0
   21.1532  -10.0737    0.0000 O    0  0  0  0  0  0  0  0  0  0  0  0
   27.1788   -8.4692    0.0000 O    0  0  0  0  0  0  0  0  0  0  0  0
   24.0907  -14.0802    0.0000 C    0  0  0  0  0  0  0  0  0  0  0  0
   24.6283  -16.0927    0.0000 C    0  0  0  0  0  0  0  0  0  0  0  0
   21.5438  -15.5506    0.0000 C    0  0  0  0  0  0  0  0  0  0  0  0
   19.5228  -15.0193    0.0000 C    0  0  0  0  0  0  0  0  0  0  0  0
   20.0804  -13.0160    0.0000 C    0  0  0  0  0  0  0  0  0  0  0  0
  1  2  1  0  0  0  0
  2  3  1  0  0  0  0
  3  4  1  0  0  0  0
  4  5  1  0  0  0  0
  2  6  2  0  0  0  0
  4  7  2  0  0  0  0
  1  8  2  0  0  0  0
  8  9  1  0  0  0  0
 10 11  1  0  0  0  0
  1 10  1  0  0  0  0
 11 12  1  0  0  0  0
 12  1  1  0  0  0  0
M  END
> <NMREDATA_VERSION>
1.1

> <NMREDATA_LEVEL>
0

> <NMREDATA_SOLVENT>
DCCl3

> <NMREDATA_TEMPERATURE>
270

> <NMREDATA_FORMULA>
C9H15O2Rh

> <NMREDATA_SMILES>
CC=[Rh]1(CCC1)C(=O)CC(=O)C

> <NMREDATA_ASSIGNMENT>
Rh1, 1262.00, 1

> <NMREDATA_1D_103Rh>
1262.00, L=Rh1

$$$$
