
  ACD/LABS02122410462D

 17 17  0  0  0  0  0  0  0  0  2 V2000
   15.1856   -6.9238    0.0000 C    0  0  0  0  0  0  0  0  0  0  0  0
   15.8506   -8.0756    0.0000 C    0  0  0  0  0  0  0  0  0  0  0  0
   13.8556   -6.9238    0.0000 C    0  0  0  0  0  0  0  0  0  0  0  0
   15.1856   -9.2274    0.0000 C    0  0  0  0  0  0  0  0  0  0  0  0
   13.1906   -8.0756    0.0000 C    0  0  0  0  0  0  0  0  0  0  0  0
   13.8556   -9.2274    0.0000 N    0  0  0  0  0  0  0  0  0  0  0  0
   15.8506   -5.7719    0.0000 Rh   0  3  0  0  0  0  0  0  0  0  0  0
   15.1856   -4.6201    0.0000 Cl   0  0  0  0  0  0  0  0  0  0  0  0
   17.1806   -5.7719    0.0000 C    0  0  0  0  0  0  0  0  0  0  0  0
   17.8456   -6.9238    0.0000 C    0  5  0  0  0  0  0  0  0  0  0  0
   19.1756   -6.9238    0.0000 C    0  0  0  0  0  0  0  0  0  0  0  0
   19.1756   -5.5938    0.0000 C    0  0  0  0  0  0  0  0  0  0  0  0
   19.1756   -8.2538    0.0000 C    0  0  0  0  0  0  0  0  0  0  0  0
   20.5056   -6.9238    0.0000 C    0  0  0  0  0  0  0  0  0  0  0  0
   21.1706   -8.0756    0.0000 N    0  0  0  0  0  0  0  0  0  0  0  0
   22.5006   -8.0756    0.0000 C    0  0  0  0  0  0  0  0  0  0  0  0
   20.5056   -9.2274    0.0000 C    0  0  0  0  0  0  0  0  0  0  0  0
  1  2  1  0  0  0  0
  1  3  2  0  0  0  0
  2  4  2  0  0  0  0
  3  5  1  0  0  0  0
  4  6  1  0  0  0  0
  5  6  2  0  0  0  0
  7  8  1  0  0  0  0
  7  9  1  0  0  0  0
  9 10  1  0  0  0  0
 10 11  1  0  0  0  0
 11 12  1  0  0  0  0
 11 13  1  0  0  0  0
 11 14  1  0  0  0  0
 14 15  1  0  0  0  0
 15 16  1  0  0  0  0
 15 17  1  0  0  0  0
  1  7  1  0  0  0  0
M  END
> <NMREDATA_VERSION>
1.1

> <NMREDATA_LEVEL>
0

> <NMREDATA_SOLVENT>
CD2Cl2

> <NMREDATA_TEMPERATURE>
298

> <NMREDATA_FORMULA>
C13H22ClN2Rh

> <NMREDATA_SMILES>
CN(CC(CC[Rh](c1ccncc1)Cl)(C)C)C

> <NMREDATA_ASSIGNMENT>
Rh7, 2051.00, 7

> <NMREDATA_1D_103Rh>
2051.00, L=Rh7

$$$$
