
  ACD/LABS04012415002D

 47 52  0  0  0  0  0  0  0  0  1 V2000
   14.3173  -18.7655    0.0000 C    0  0  0  0  0  0  0  0  0  0  0  0
   15.0247  -19.8918    0.0000 C    0  0  0  0  0  0  0  0  0  0  0  0
   14.7569  -17.5102    0.0000 C    0  0  0  0  0  0  0  0  0  0  0  0
   16.3463  -20.0410    0.0000 C    0  0  0  0  0  0  0  0  0  0  0  0
   16.0124  -17.0713    0.0000 C    0  0  0  0  0  0  0  0  0  0  0  0
   17.1384  -17.7791    0.0000 C    0  0  0  0  0  0  0  0  0  0  0  0
   17.2869  -19.1008    0.0000 C    0  0  0  0  0  0  0  0  0  0  0  0
   11.8240  -12.1758    0.0000 Rh   0  0  0  0  0  0  0  0  0  0  0  0
   11.8240  -10.8392    0.0000 B    0  0  0  0  0  0  0  0  0  0  0  0
   13.1603  -10.8392    0.0000 N    0  0  0  0  0  0  0  0  0  0  0  0
   13.9444  -11.9174    0.0000 C    0  0  0  0  0  0  0  0  0  0  0  0
   13.9444   -9.7704    0.0000 N    0  0  0  0  0  0  0  0  0  0  0  0
   15.2097  -11.5076    0.0000 C    0  0  0  0  0  0  0  0  0  0  0  0
   15.2097  -10.1803    0.0000 C    0  0  0  0  0  0  0  0  0  0  0  0
   11.8240   -9.5118    0.0000 N    0  0  0  0  0  0  0  0  0  0  0  0
   10.7460   -8.7280    0.0000 C    0  0  0  0  0  0  0  0  0  0  0  0
   12.9020   -8.7280    0.0000 N    0  0  0  0  0  0  0  0  0  0  0  0
   11.1558   -7.4537    0.0000 C    0  0  0  0  0  0  0  0  0  0  0  0
   12.4832   -7.4537    0.0000 C    0  0  0  0  0  0  0  0  0  0  0  0
   10.4964  -10.8392    0.0000 N    0  0  0  0  0  0  0  0  0  0  0  0
    9.7035   -9.7704    0.0000 C    0  0  0  0  0  0  0  0  0  0  0  0
    9.7035  -11.9174    0.0000 N    0  0  0  0  0  0  0  0  0  0  0  0
    8.4383  -10.1803    0.0000 C    0  0  0  0  0  0  0  0  0  0  0  0
    8.4383  -11.5076    0.0000 C    0  0  0  0  0  0  0  0  0  0  0  0
   10.3717   -6.3755    0.0000 C    0  0  0  0  0  0  0  0  0  0  0  0
   13.2763   -6.3755    0.0000 C    0  0  0  0  0  0  0  0  0  0  0  0
   16.2966  -12.2918    0.0000 C    0  0  0  0  0  0  0  0  0  0  0  0
   16.2966   -9.3961    0.0000 C    0  0  0  0  0  0  0  0  0  0  0  0
    7.3513   -9.3961    0.0000 C    0  0  0  0  0  0  0  0  0  0  0  0
    7.3513  -12.2918    0.0000 C    0  0  0  0  0  0  0  0  0  0  0  0
   10.5759  -12.8353    0.0000 O    0  0  0  0  0  0  0  0  0  0  0  0
   10.2714  -13.9890    0.0000 O    0  0  0  0  0  0  0  0  0  0  0  0
   13.8167  -16.5696    0.0000 P    0  0  0  0  0  0  0  0  0  0  0  0
   16.0126  -16.0689    0.0000 C    0  0  0  0  0  0  0  0  0  0  0  0
   17.1389  -15.3616    0.0000 C    0  0  0  0  0  0  0  0  0  0  0  0
   14.7574  -15.6293    0.0000 C    0  0  0  0  0  0  0  0  0  0  0  0
   17.2882  -14.0400    0.0000 C    0  0  0  0  0  0  0  0  0  0  0  0
   14.3184  -14.3739    0.0000 C    0  0  0  0  0  0  0  0  0  0  0  0
   15.0263  -13.2479    0.0000 C    0  0  0  0  0  0  0  0  0  0  0  0
   16.3479  -13.0993    0.0000 C    0  0  0  0  0  0  0  0  0  0  0  0
   11.6207  -17.0702    0.0000 C    0  0  0  0  0  0  0  0  0  0  0  0
   10.4944  -17.7775    0.0000 C    0  0  0  0  0  0  0  0  0  0  0  0
   12.8760  -17.5098    0.0000 C    0  0  0  0  0  0  0  0  0  0  0  0
   10.3452  -19.0991    0.0000 C    0  0  0  0  0  0  0  0  0  0  0  0
   13.3150  -18.7653    0.0000 C    0  0  0  0  0  0  0  0  0  0  0  0
   12.6071  -19.8912    0.0000 C    0  0  0  0  0  0  0  0  0  0  0  0
   11.2854  -20.0398    0.0000 C    0  0  0  0  0  0  0  0  0  0  0  0
  1  2  2  0  0  0  0
  1  3  1  0  0  0  0
  2  4  1  0  0  0  0
  3  5  1  0  0  0  0
  4  7  2  0  0  0  0
  5  6  2  0  0  0  0
  6  7  1  0  0  0  0
 10 11  1  0  0  0  0
 10 12  1  0  0  0  0
 11 13  2  0  0  0  0
 12 14  2  0  0  0  0
 13 14  1  0  0  0  0
  9 10  1  0  0  0  0
 15 16  1  0  0  0  0
 15 17  1  0  0  0  0
 16 18  2  0  0  0  0
 17 19  2  0  0  0  0
 18 19  1  0  0  0  0
  9 15  1  0  0  0  0
 20 21  1  0  0  0  0
 20 22  1  0  0  0  0
 21 23  2  0  0  0  0
 22 24  2  0  0  0  0
 23 24  1  0  0  0  0
  9 20  1  0  0  0  0
 18 25  1  0  0  0  0
 19 26  1  0  0  0  0
 13 27  1  0  0  0  0
 14 28  1  0  0  0  0
 23 29  1  0  0  0  0
 24 30  1  0  0  0  0
  8  9  1  0  0  0  0
  8 31  1  0  0  0  0
 31 32  2  0  0  0  0
  8 33  1  0  0  0  0
 34 35  2  0  0  0  0
 34 36  1  0  0  0  0
 35 37  1  0  0  0  0
 36 38  1  0  0  0  0
 37 40  2  0  0  0  0
 38 39  2  0  0  0  0
 39 40  1  0  0  0  0
 33 36  1  0  0  0  0
 41 42  2  0  0  0  0
 41 43  1  0  0  0  0
 42 44  1  0  0  0  0
 43 45  1  0  0  0  0
 44 47  2  0  0  0  0
 45 46  2  0  0  0  0
 46 47  1  0  0  0  0
 33 43  1  0  0  0  0
  3 33  1  0  0  0  0
M  END
> <NMREDATA_VERSION>
1.1

> <NMREDATA_LEVEL>
0

> <NMREDATA_SOLVENT>
C6D6

> <NMREDATA_FORMULA>
C36H43BN6O2PRh

> <NMREDATA_SMILES>
O=[O][Rh]([B](n1nc(c(c1)C)C)(n1nc(c(c1)C)C)n1nc(c(c1)C)C)P(C1C=CC=CC=C1)(C1C=CC=CC=C1)C1C=CC=CC=C1

> <NMREDATA_ASSIGNMENT>
Rh8, 4540.00, 8

> <NMREDATA_1D_103Rh>
4540.00, L=Rh8

$$$$
