
  ACD/LABS03152413192D

 32 34  0  0  0  0  0  0  0  0  1 V2000
   12.0336  -10.5258    0.0000 C    0  0  0  0  0  0  0  0  0  0  0  0
   12.6993  -11.6782    0.0000 C    0  0  0  0  0  0  0  0  0  0  0  0
   12.6988   -9.3737    0.0000 C    0  0  0  0  0  0  0  0  0  0  0  0
   14.0229  -11.6743    0.0000 C    0  0  0  0  0  0  0  0  0  0  0  0
   14.0253   -9.3815    0.0000 C    0  0  0  0  0  0  0  0  0  0  0  0
   14.6880  -10.5222    0.0000 C    0  0  0  0  0  0  0  0  0  0  0  0
   12.1868   -6.7844    0.0000 Rh   0  0  0  0  0  0  0  0  0  0  0  0
   14.6902   -8.2297    0.0000 Si   0  0  0  0  0  0  0  0  0  0  0  0
   18.1390  -10.2208    0.0000 C    0  0  0  0  0  0  0  0  0  0  0  0
   16.9985  -10.8833    0.0000 C    0  0  0  0  0  0  0  0  0  0  0  0
   18.1350   -8.8975    0.0000 C    0  0  0  0  0  0  0  0  0  0  0  0
   15.8464  -10.2182    0.0000 C    0  0  0  0  0  0  0  0  0  0  0  0
   16.9829   -8.2324    0.0000 C    0  0  0  0  0  0  0  0  0  0  0  0
   15.8423   -8.8949    0.0000 C    0  0  0  0  0  0  0  0  0  0  0  0
   11.5218   -7.9361    0.0000 P    0  0  0  0  0  0  0  0  0  0  0  0
   12.7660   -8.3884    0.0000 C    0  0  0  0  0  0  0  0  0  0  0  0
   10.3698   -7.2710    0.0000 C    0  0  0  0  0  0  0  0  0  0  0  0
   10.8567   -9.0882    0.0000 C    0  0  0  0  0  0  0  0  0  0  0  0
   12.8400   -5.6357    0.0000 P    0  0  0  0  0  0  0  0  0  0  0  0
    9.6753   -5.3343    0.0000 P    0  0  0  0  0  0  0  0  0  0  0  0
   13.8656   -6.4839    0.0000 C    0  0  0  0  0  0  0  0  0  0  0  0
   11.6879   -4.9706    0.0000 C    0  0  0  0  0  0  0  0  0  0  0  0
   13.5051   -4.4836    0.0000 C    0  0  0  0  0  0  0  0  0  0  0  0
    9.0103   -6.4861    0.0000 C    0  0  0  0  0  0  0  0  0  0  0  0
   10.3284   -4.1857    0.0000 C    0  0  0  0  0  0  0  0  0  0  0  0
    8.5232   -4.6692    0.0000 C    0  0  0  0  0  0  0  0  0  0  0  0
   16.6737   -4.7769    0.0000 C    0  0  0  0  0  0  0  0  0  0  0  0
   17.3397   -5.9294    0.0000 C    0  0  0  0  0  0  0  0  0  0  0  0
   15.3504   -4.7809    0.0000 C    0  0  0  0  0  0  0  0  0  0  0  0
   16.6788   -7.0740    0.0000 C    0  0  0  0  0  0  0  0  0  0  0  0
   14.6852   -5.9330    0.0000 C    0  0  0  0  0  0  0  0  0  0  0  0
   15.3477   -7.0736    0.0000 C    0  0  0  0  0  0  0  0  0  0  0  0
  1  2  1  0  0  0  0
  1  3  2  0  0  0  0
  2  4  2  0  0  0  0
  3  5  1  0  0  0  0
  4  6  1  0  0  0  0
  5  6  2  0  0  0  0
  7  8  1  0  0  0  0
  9 10  1  0  0  0  0
  9 11  2  0  0  0  0
 10 12  2  0  0  0  0
 11 13  1  0  0  0  0
 12 14  1  0  0  0  0
 13 14  2  0  0  0  0
  8 14  1  0  0  0  0
  7 15  1  0  0  0  0
 15 16  1  0  0  0  0
 15 17  1  0  0  0  0
 15 18  1  0  0  0  0
  7 19  1  0  0  0  0
  7 20  1  0  0  0  0
 19 21  1  0  0  0  0
 19 22  1  0  0  0  0
 19 23  1  0  0  0  0
 20 24  1  0  0  0  0
 20 25  1  0  0  0  0
 20 26  1  0  0  0  0
  5  8  1  0  0  0  0
 27 28  1  0  0  0  0
 27 29  2  0  0  0  0
 28 30  2  0  0  0  0
 29 31  1  0  0  0  0
 30 32  1  0  0  0  0
 31 32  2  0  0  0  0
  8 32  1  0  0  0  0
M  END
> <NMREDATA_VERSION>
1.1

> <NMREDATA_LEVEL>
0

> <NMREDATA_SOLVENT>
C6D6

> <NMREDATA_TEMPERATURE>
293

> <NMREDATA_FORMULA>
C27H45P3RhSi

> <NMREDATA_SMILES>
CP([Rh]([Si](c1ccccc1)(c1ccccc1)c1ccccc1)(P(C)(C)C)P(C)(C)C)(C)C

> <NMREDATA_ASSIGNMENT>
Rh7, 735.00, 7

> <NMREDATA_1D_103Rh>
735.00, L=Rh7

$$$$
