
  ACD/LABS03092411042D

 47 53  0  0  0  0  0  0  0  0  1 V2000
   11.3911   -7.8984    0.0000 P    0  0  0  0  0  0  0  0  0  0  0  0
   10.7261   -6.7466    0.0000 C    0  0  0  0  0  0  0  0  0  0  0  0
   11.3916   -5.5947    0.0000 C    0  0  0  0  0  0  0  0  0  0  0  0
    9.3955   -6.7472    0.0000 C    0  0  0  0  0  0  0  0  0  0  0  0
   10.7266   -4.4429    0.0000 C    0  0  0  0  0  0  0  0  0  0  0  0
    8.7305   -5.5954    0.0000 C    0  0  0  0  0  0  0  0  0  0  0  0
    9.3963   -4.4433    0.0000 C    0  0  0  0  0  0  0  0  0  0  0  0
   12.0559   -9.0498    0.0000 C    0  0  0  0  0  0  0  0  0  0  0  0
   13.3864   -9.0498    0.0000 C    0  0  0  0  0  0  0  0  0  0  0  0
   11.3903  -10.2022    0.0000 C    0  0  0  0  0  0  0  0  0  0  0  0
   14.0466  -10.1932    0.0000 C    0  0  0  0  0  0  0  0  0  0  0  0
   12.0504  -11.3457    0.0000 C    0  0  0  0  0  0  0  0  0  0  0  0
   13.3811  -11.3450    0.0000 C    0  0  0  0  0  0  0  0  0  0  0  0
    7.9361   -9.8931    0.0000 C    0  0  0  0  0  0  0  0  0  0  0  0
    7.9354   -8.5625    0.0000 C    0  0  0  0  0  0  0  0  0  0  0  0
    9.0835  -10.5510    0.0000 C    0  0  0  0  0  0  0  0  0  0  0  0
    9.0873   -7.8975    0.0000 C    0  0  0  0  0  0  0  0  0  0  0  0
   10.2353   -9.8860    0.0000 C    0  0  0  0  0  0  0  0  0  0  0  0
   10.2393   -8.5634    0.0000 C    0  0  0  0  0  0  0  0  0  0  0  0
   12.6380   -7.4340    0.0000 Rh   0  0  0  0  0  0  0  0  0  0  0  0
   12.3971   -6.1298    0.0000 C    0  0  0  0  0  0  0  0  0  0  0  0
   12.1554   -4.8261    0.0000 N    0  0  0  0  0  0  0  0  0  0  0  0
   15.3548   -6.4492    0.0000 P    0  0  0  0  0  0  0  0  0  0  0  0
   15.8071   -7.6928    0.0000 C    0  0  0  0  0  0  0  0  0  0  0  0
   17.1200   -7.9280    0.0000 C    0  0  0  0  0  0  0  0  0  0  0  0
   14.9548   -8.7173    0.0000 C    0  0  0  0  0  0  0  0  0  0  0  0
   17.5673   -9.1639    0.0000 C    0  0  0  0  0  0  0  0  0  0  0  0
   15.4065   -9.9608    0.0000 C    0  0  0  0  0  0  0  0  0  0  0  0
   16.7153  -10.1881    0.0000 C    0  0  0  0  0  0  0  0  0  0  0  0
   14.8984   -5.1978    0.0000 C    0  0  0  0  0  0  0  0  0  0  0  0
   13.5900   -4.9702    0.0000 C    0  0  0  0  0  0  0  0  0  0  0  0
   15.7431   -4.1777    0.0000 C    0  0  0  0  0  0  0  0  0  0  0  0
   13.1260   -3.7231    0.0000 C    0  0  0  0  0  0  0  0  0  0  0  0
   15.2862   -2.9260    0.0000 C    0  0  0  0  0  0  0  0  0  0  0  0
   13.9779   -2.6988    0.0000 C    0  0  0  0  0  0  0  0  0  0  0  0
   19.0975   -5.0768    0.0000 C    0  0  0  0  0  0  0  0  0  0  0  0
   18.8703   -6.3850    0.0000 C    0  0  0  0  0  0  0  0  0  0  0  0
   18.0810   -4.2199    0.0000 C    0  0  0  0  0  0  0  0  0  0  0  0
   17.6189   -6.8414    0.0000 C    0  0  0  0  0  0  0  0  0  0  0  0
   16.8292   -4.6764    0.0000 C    0  0  0  0  0  0  0  0  0  0  0  0
   16.6022   -5.9850    0.0000 C    0  0  0  0  0  0  0  0  0  0  0  0
   13.0967   -8.6824    0.0000 C    0  0  0  0  0  0  0  0  0  0  0  0
   14.4072   -8.9094    0.0000 C    0  0  0  0  0  0  0  0  0  0  0  0
   12.2449   -9.7040    0.0000 C    0  0  0  0  0  0  0  0  0  0  0  0
   14.8659  -10.1579    0.0000 C    0  0  0  0  0  0  0  0  0  0  0  0
   12.7036  -10.9523    0.0000 C    0  0  0  0  0  0  0  0  0  0  0  0
   14.0141  -11.1793    0.0000 N    0  0  0  0  0  0  0  0  0  0  0  0
  2  3  1  0  0  0  0
  2  4  2  0  0  0  0
  3  5  2  0  0  0  0
  4  6  1  0  0  0  0
  5  7  1  0  0  0  0
  6  7  2  0  0  0  0
  1  2  1  0  0  0  0
  8  9  1  0  0  0  0
  8 10  2  0  0  0  0
  9 11  2  0  0  0  0
 10 12  1  0  0  0  0
 11 13  1  0  0  0  0
 12 13  2  0  0  0  0
  1  8  1  0  0  0  0
 14 15  1  0  0  0  0
 14 16  2  0  0  0  0
 15 17  2  0  0  0  0
 16 18  1  0  0  0  0
 17 19  1  0  0  0  0
 18 19  2  0  0  0  0
  1 19  1  0  0  0  0
 21 22  3  0  0  0  0
 20 21  1  0  0  0  0
 20 23  1  0  0  0  0
 24 25  1  0  0  0  0
 24 26  2  0  0  0  0
 25 27  2  0  0  0  0
 26 28  1  0  0  0  0
 27 29  1  0  0  0  0
 28 29  2  0  0  0  0
 23 24  1  0  0  0  0
 30 31  1  0  0  0  0
 30 32  2  0  0  0  0
 31 33  2  0  0  0  0
 32 34  1  0  0  0  0
 33 35  1  0  0  0  0
 34 35  2  0  0  0  0
 23 30  1  0  0  0  0
 36 37  1  0  0  0  0
 36 38  2  0  0  0  0
 37 39  2  0  0  0  0
 38 40  1  0  0  0  0
 39 41  1  0  0  0  0
 40 41  2  0  0  0  0
 23 41  1  0  0  0  0
  1 20  1  0  0  0  0
 42 43  1  0  0  0  0
 42 44  2  0  0  0  0
 43 45  2  0  0  0  0
 44 46  1  0  0  0  0
 45 47  1  0  0  0  0
 46 47  2  0  0  0  0
 20 42  1  0  0  0  0
M  END
> <NMREDATA_VERSION>
1.1

> <NMREDATA_LEVEL>
0

> <NMREDATA_SOLVENT>
toluene-d8

> <NMREDATA_TEMPERATURE>
247

> <NMREDATA_FORMULA>
C42H36N2P2Rh

> <NMREDATA_SMILES>
N#C[Rh](P(c1ccccc1)(c1ccccc1)c1ccccc1)(P(c1ccccc1)(c1ccccc1)c1ccccc1)c1ccncc1

> <NMREDATA_ASSIGNMENT>
Rh20, -142.00, 20

> <NMREDATA_1D_103Rh>
-142.00, L=Rh20

$$$$
