
  ACD/LABS03262411562D

 57 64  0  0  0  0  0  0  0  0  2 V2000
    9.6774  -12.4818    0.0000 C    0  0  0  0  0  0  0  0  0  0  0  0
    9.6700  -13.8175    0.0000 C    0  0  0  0  0  0  0  0  0  0  0  0
    8.5369  -11.8197    0.0000 C    0  0  0  0  0  0  0  0  0  0  0  0
    8.5133  -14.4751    0.0000 C    0  0  0  0  0  0  0  0  0  0  0  0
    7.3800  -12.4769    0.0000 C    0  0  0  0  0  0  0  0  0  0  0  0
    7.3685  -13.8047    0.0000 C    0  0  0  0  0  0  0  0  0  0  0  0
    8.8673  -10.9017    0.0000 C    0  0  0  0  0  0  0  0  0  0  0  0
   10.1811  -10.6756    0.0000 C    0  0  0  0  0  0  0  0  0  0  0  0
    8.0190   -9.8754    0.0000 C    0  0  0  0  0  0  0  0  0  0  0  0
   10.6385   -9.4279    0.0000 C    0  0  0  0  0  0  0  0  0  0  0  0
    8.4841   -8.6233    0.0000 C    0  0  0  0  0  0  0  0  0  0  0  0
    9.7905   -8.4021    0.0000 C    0  0  0  0  0  0  0  0  0  0  0  0
   10.8208  -14.1259    0.0000 C    0  0  0  0  0  0  0  0  0  0  0  0
   11.4917  -12.9808    0.0000 C    0  0  0  0  0  0  0  0  0  0  0  0
   11.4785  -15.2825    0.0000 C    0  0  0  0  0  0  0  0  0  0  0  0
   12.8274  -12.9883    0.0000 C    0  0  0  0  0  0  0  0  0  0  0  0
   12.8142  -15.2900    0.0000 C    0  0  0  0  0  0  0  0  0  0  0  0
   13.4850  -14.1449    0.0000 C    0  0  0  0  0  0  0  0  0  0  0  0
   21.5743   -9.6180    0.0000 C    0  0  0  0  0  0  0  0  0  0  0  0
   20.2596   -9.4347    0.0000 C    0  0  0  0  0  0  0  0  0  0  0  0
   22.0738  -10.8558    0.0000 C    0  0  0  0  0  0  0  0  0  0  0  0
   19.4405  -10.4813    0.0000 C    0  0  0  0  0  0  0  0  0  0  0  0
   21.2464  -11.9066    0.0000 C    0  0  0  0  0  0  0  0  0  0  0  0
   19.9273  -11.7156    0.0000 C    0  0  0  0  0  0  0  0  0  0  0  0
   16.0703   -8.8315    0.0000 Rh   0  6  0  0  0  0  0  0  0  0  0  0
   14.8486   -8.3292    0.0000 H    0  0  0  0  0  0  0  0  0  0  0  0
   16.3032   -5.9530    0.0000 C    0  0  0  0  0  0  0  0  0  0  0  0
   19.9074   -4.2301    0.0000 C    0  0  0  0  0  0  0  0  0  0  0  0
   18.8093   -3.4813    0.0000 C    0  0  0  0  0  0  0  0  0  0  0  0
   19.8049   -5.5597    0.0000 C    0  0  0  0  0  0  0  0  0  0  0  0
   17.6117   -4.0503    0.0000 C    0  0  0  0  0  0  0  0  0  0  0  0
   18.5989   -6.1329    0.0000 C    0  0  0  0  0  0  0  0  0  0  0  0
   17.5085   -5.3796    0.0000 C    0  0  0  0  0  0  0  0  0  0  0  0
   15.3530   -5.0161    0.0000 N    0  0  0  0  0  0  0  0  0  0  0  0
   14.0748   -5.3752    0.0000 C    0  0  0  0  0  0  0  0  0  0  0  0
   13.7431   -6.6627    0.0000 N    0  0  0  0  0  0  0  0  0  0  0  0
   13.1215   -4.4508    0.0000 C    0  0  0  0  0  0  0  0  0  0  0  0
   12.4653   -7.0215    0.0000 C    0  0  0  0  0  0  0  0  0  0  0  0
   11.8387   -4.8018    0.0000 C    0  0  0  0  0  0  0  0  0  0  0  0
   11.5197   -6.0927    0.0000 C    0  0  0  0  0  0  0  0  0  0  0  0
   10.8341  -11.8242    0.0000 Sb   0  3  0  0  0  0  0  0  0  0  0  0
   16.5622  -10.0737    0.0000 Sb   0  3  0  0  0  0  0  0  0  0  0  0
   11.7088  -11.3706    0.0000 C    0  0  0  0  0  0  0  0  0  0  0  0
   13.0452  -11.3256    0.0000 C    0  0  0  0  0  0  0  0  0  0  0  0
   11.0177  -10.2440    0.0000 C    0  0  0  0  0  0  0  0  0  0  0  0
   13.6705  -10.1555    0.0000 C    0  0  0  0  0  0  0  0  0  0  0  0
   11.6427   -9.0734    0.0000 C    0  0  0  0  0  0  0  0  0  0  0  0
   12.9714   -9.0335    0.0000 C    0  0  0  0  0  0  0  0  0  0  0  0
   18.0458  -13.3349    0.0000 C    0  0  0  0  0  0  0  0  0  0  0  0
   18.0057  -12.0058    0.0000 C    0  0  0  0  0  0  0  0  0  0  0  0
   16.9156  -14.0383    0.0000 C    0  0  0  0  0  0  0  0  0  0  0  0
   16.8312  -11.3729    0.0000 C    0  0  0  0  0  0  0  0  0  0  0  0
   15.7491  -13.4007    0.0000 C    0  0  0  0  0  0  0  0  0  0  0  0
   15.7012  -12.0767    0.0000 C    0  0  0  0  0  0  0  0  0  0  0  0
   17.3854   -8.6353    0.0000 Cl   0  0  0  0  0  0  0  0  0  0  0  0
   13.4525   -3.1626    0.0000 C    0  0  0  0  0  0  0  0  0  0  0  0
   16.8093   -3.6214    0.0000 O    0  0  0  0  0  0  0  0  0  0  0  0
  1  2  1  0  0  0  0
  1  3  2  0  0  0  0
  2  4  2  0  0  0  0
  3  5  1  0  0  0  0
  4  6  1  0  0  0  0
  5  6  2  0  0  0  0
  7  8  1  0  0  0  0
  7  9  2  0  0  0  0
  8 10  2  0  0  0  0
  9 11  1  0  0  0  0
 10 12  1  0  0  0  0
 11 12  2  0  0  0  0
 13 14  1  0  0  0  0
 13 15  2  0  0  0  0
 14 16  2  0  0  0  0
 15 17  1  0  0  0  0
 16 18  1  0  0  0  0
 17 18  2  0  0  0  0
 19 20  1  0  0  0  0
 19 21  2  0  0  0  0
 20 22  2  0  0  0  0
 21 23  1  0  0  0  0
 22 24  1  0  0  0  0
 23 24  2  0  0  0  0
 25 26  1  0  0  0  0
 25 27  1  0  0  0  0
 28 29  1  0  0  0  0
 28 30  2  0  0  0  0
 29 31  2  0  0  0  0
 30 32  1  0  0  0  0
 31 33  1  0  0  0  0
 32 33  2  0  0  0  0
 27 33  1  0  0  0  0
 27 34  2  0  0  0  0
 35 36  1  0  0  0  0
 35 37  2  0  0  0  0
 36 38  2  0  0  0  0
 37 39  1  0  0  0  0
 38 40  1  0  0  0  0
 39 40  2  0  0  0  0
 34 35  1  0  0  0  0
 25 41  1  0  0  0  0
 25 42  1  0  0  0  0
 22 42  1  0  0  0  0
 43 44  1  0  0  0  0
 43 45  2  0  0  0  0
 44 46  2  0  0  0  0
 45 47  1  0  0  0  0
 46 48  1  0  0  0  0
 47 48  2  0  0  0  0
 42 46  1  0  0  0  0
 49 50  1  0  0  0  0
 49 51  2  0  0  0  0
 50 52  2  0  0  0  0
 51 53  1  0  0  0  0
 52 54  1  0  0  0  0
 53 54  2  0  0  0  0
 42 52  1  0  0  0  0
 14 41  1  0  0  0  0
  8 41  1  0  0  0  0
  1 41  1  0  0  0  0
 25 55  1  0  0  0  0
 37 56  1  0  0  0  0
 31 57  1  0  0  0  0
M  END
> <NMREDATA_VERSION>
1.1

> <NMREDATA_LEVEL>
0

> <NMREDATA_SOLVENT>
DCCl3

> <NMREDATA_FORMULA>
C49H44ClN2ORhSb2

> <NMREDATA_SMILES>
Oc1ccccc1/C(=N/c1ncccc1C)/[RhH]([SbH](c1ccccc1)(c1ccccc1)c1ccccc1)([SbH](c1ccccc1)(c1ccccc1)c1ccccc1)Cl

> <NMREDATA_ASSIGNMENT>
Rh25, 800.00, 25

> <NMREDATA_1D_103Rh>
800.00, L=Rh25

$$$$
