
  ACD/LABS03142420042D

 63 69  0  0  0  0  0  0  0  0  2 V2000
    9.2612   -8.1182    0.0000 P    0  0  0  0  0  0  0  0  0  0  0  0
    8.4042   -7.1011    0.0000 C    0  0  0  0  0  0  0  0  0  0  0  0
    7.0907   -7.3360    0.0000 C    0  0  0  0  0  0  0  0  0  0  0  0
    8.8533   -5.8444    0.0000 C    0  0  0  0  0  0  0  0  0  0  0  0
    6.2337   -6.3189    0.0000 C    0  0  0  0  0  0  0  0  0  0  0  0
    7.9919   -4.8349    0.0000 C    0  0  0  0  0  0  0  0  0  0  0  0
    6.6904   -5.0666    0.0000 C    0  0  0  0  0  0  0  0  0  0  0  0
   11.4784   -9.9716    0.0000 C    0  0  0  0  0  0  0  0  0  0  0  0
   12.6310   -9.3057    0.0000 C    0  0  0  0  0  0  0  0  0  0  0  0
   11.4825  -11.2950    0.0000 C    0  0  0  0  0  0  0  0  0  0  0  0
   13.7833   -9.9710    0.0000 C    0  0  0  0  0  0  0  0  0  0  0  0
   12.6347  -11.9603    0.0000 C    0  0  0  0  0  0  0  0  0  0  0  0
   13.7829  -11.3021    0.0000 C    0  0  0  0  0  0  0  0  0  0  0  0
   10.2783   -7.2612    0.0000 C    0  0  0  0  0  0  0  0  0  0  0  0
   10.0431   -5.9475    0.0000 C    0  0  0  0  0  0  0  0  0  0  0  0
   11.0602   -5.0905    0.0000 O    0  0  0  0  0  0  0  0  0  0  0  0
   10.8252   -3.7772    0.0000 C    0  0  0  0  0  0  0  0  0  0  0  0
    8.4837  -10.2805    0.0000 P    0  0  0  0  0  0  0  0  0  0  0  0
    8.9334  -11.5236    0.0000 C    0  0  0  0  0  0  0  0  0  0  0  0
   10.2473  -11.7493    0.0000 C    0  0  0  0  0  0  0  0  0  0  0  0
    8.0775  -12.5450    0.0000 C    0  0  0  0  0  0  0  0  0  0  0  0
   10.7047  -12.9968    0.0000 C    0  0  0  0  0  0  0  0  0  0  0  0
    8.5427  -13.7970    0.0000 C    0  0  0  0  0  0  0  0  0  0  0  0
    9.8485  -14.0184    0.0000 C    0  0  0  0  0  0  0  0  0  0  0  0
    7.2364  -10.7383    0.0000 C    0  0  0  0  0  0  0  0  0  0  0  0
    7.0072  -12.0399    0.0000 C    0  0  0  0  0  0  0  0  0  0  0  0
    6.2147   -9.8822    0.0000 C    0  0  0  0  0  0  0  0  0  0  0  0
    5.7553  -12.5049    0.0000 C    0  0  0  0  0  0  0  0  0  0  0  0
    4.9673  -10.3399    0.0000 C    0  0  0  0  0  0  0  0  0  0  0  0
    4.7415  -11.6534    0.0000 C    0  0  0  0  0  0  0  0  0  0  0  0
    9.7279   -9.8107    0.0000 C    0  0  0  0  0  0  0  0  0  0  0  0
    9.9603   -8.5218    0.0000 C    0  0  0  0  0  0  0  0  0  0  0  0
   11.1997   -8.0594    0.0000 O    0  0  0  0  0  0  0  0  0  0  0  0
   11.4257   -6.7457    0.0000 C    0  0  0  0  0  0  0  0  0  0  0  0
    8.2488   -8.9669    0.0000 Rh   0  3  0  0  0  0  0  0  0  0  0  0
    6.9997   -8.5225    0.0000 S    0  0  0  0  0  0  0  0  0  0  0  0
    5.7524   -8.9800    0.0000 O    0  0  0  0  0  0  0  0  0  0  0  0
    6.1473   -7.4975    0.0000 O    0  0  0  0  0  0  0  0  0  0  0  0
   23.4272  -12.5398    0.0000 C    0  0  0  0  0  0  0  0  0  0  0  0
   24.0922  -13.6916    0.0000 C    0  0  0  0  0  0  0  0  0  0  0  0
   22.0972  -12.5398    0.0000 C    0  0  0  0  0  0  0  0  0  0  0  0
   23.4272  -14.8434    0.0000 C    0  0  0  0  0  0  0  0  0  0  0  0
   21.4322  -13.6916    0.0000 C    0  0  0  0  0  0  0  0  0  0  0  0
   22.0972  -14.8434    0.0000 C    0  0  0  0  0  0  0  0  0  0  0  0
   21.4322  -11.3880    0.0000 B    0  5  0  0  0  0  0  0  0  0  0  0
   22.5840  -10.7230    0.0000 C    0  0  0  0  0  0  0  0  0  0  0  0
   22.5840   -9.3930    0.0000 C    0  0  0  0  0  0  0  0  0  0  0  0
   23.7359  -11.3880    0.0000 C    0  0  0  0  0  0  0  0  0  0  0  0
   23.7359   -8.7280    0.0000 C    0  0  0  0  0  0  0  0  0  0  0  0
   24.8877  -10.7230    0.0000 C    0  0  0  0  0  0  0  0  0  0  0  0
   24.8877   -9.3930    0.0000 C    0  0  0  0  0  0  0  0  0  0  0  0
   20.2804  -12.0530    0.0000 C    0  0  0  0  0  0  0  0  0  0  0  0
   20.2804  -13.3830    0.0000 C    0  0  0  0  0  0  0  0  0  0  0  0
   19.1286  -11.3880    0.0000 C    0  0  0  0  0  0  0  0  0  0  0  0
   19.1286  -14.0480    0.0000 C    0  0  0  0  0  0  0  0  0  0  0  0
   17.9768  -12.0530    0.0000 C    0  0  0  0  0  0  0  0  0  0  0  0
   17.9768  -13.3830    0.0000 C    0  0  0  0  0  0  0  0  0  0  0  0
   20.7672  -10.2362    0.0000 C    0  0  0  0  0  0  0  0  0  0  0  0
   19.4372  -10.2362    0.0000 C    0  0  0  0  0  0  0  0  0  0  0  0
   21.4322   -9.0843    0.0000 C    0  0  0  0  0  0  0  0  0  0  0  0
   18.7722   -9.0843    0.0000 C    0  0  0  0  0  0  0  0  0  0  0  0
   20.7672   -7.9325    0.0000 C    0  0  0  0  0  0  0  0  0  0  0  0
   19.4372   -7.9325    0.0000 C    0  0  0  0  0  0  0  0  0  0  0  0
  2  3  1  0  0  0  0
  2  4  1  0  0  0  0
  3  5  1  0  0  0  0
  4  6  1  0  0  0  0
  5  7  1  0  0  0  0
  6  7  1  0  0  0  0
  1  2  1  0  0  0  0
  8  9  1  0  0  0  0
  8 10  1  0  0  0  0
  9 11  1  0  0  0  0
 10 12  1  0  0  0  0
 11 13  1  0  0  0  0
 12 13  1  0  0  0  0
  1  8  1  0  0  0  0
  1 14  1  0  0  0  0
 14 15  1  0  0  0  0
 15 16  1  0  0  0  0
 16 17  1  0  0  0  0
 19 20  1  0  0  0  0
 19 21  1  0  0  0  0
 20 22  1  0  0  0  0
 21 23  1  0  0  0  0
 22 24  1  0  0  0  0
 23 24  1  0  0  0  0
 18 19  1  0  0  0  0
 25 26  1  0  0  0  0
 25 27  1  0  0  0  0
 26 28  1  0  0  0  0
 27 29  1  0  0  0  0
 28 30  1  0  0  0  0
 29 30  1  0  0  0  0
 18 25  1  0  0  0  0
 18 31  1  0  0  0  0
 31 32  1  0  0  0  0
 32 33  1  0  0  0  0
 33 34  1  0  0  0  0
 18 35  1  0  0  0  0
  1 35  1  0  0  0  0
 36 37  2  0  0  0  0
 36 38  2  0  0  0  0
 35 36  1  0  0  0  0
 39 40  1  0  0  0  0
 39 41  2  0  0  0  0
 40 42  2  0  0  0  0
 41 43  1  0  0  0  0
 42 44  1  0  0  0  0
 43 44  2  0  0  0  0
 46 47  1  0  0  0  0
 46 48  2  0  0  0  0
 47 49  2  0  0  0  0
 48 50  1  0  0  0  0
 49 51  1  0  0  0  0
 50 51  2  0  0  0  0
 45 46  1  0  0  0  0
 52 53  1  0  0  0  0
 52 54  2  0  0  0  0
 53 55  2  0  0  0  0
 54 56  1  0  0  0  0
 55 57  1  0  0  0  0
 56 57  2  0  0  0  0
 45 52  1  0  0  0  0
 58 59  1  0  0  0  0
 58 60  2  0  0  0  0
 59 61  2  0  0  0  0
 60 62  1  0  0  0  0
 61 63  1  0  0  0  0
 62 63  2  0  0  0  0
 45 58  1  0  0  0  0
 41 45  1  0  0  0  0
M  END
> <NMREDATA_VERSION>
1.1

> <NMREDATA_LEVEL>
0

> <NMREDATA_SOLVENT>
CD2Cl2

> <NMREDATA_TEMPERATURE>
243

> <NMREDATA_FORMULA>
C54H81BO4P2RhS

> <NMREDATA_SMILES>
c1ccc(cc1)[B](c1ccccc1)(c1ccccc1)c1ccccc1.COCCP([Rh](P(C1CCCCC1)(C1CCCCC1)CCOC)S(=O)=O)(C1CCCCC1)C1CCCCC1

> <NMREDATA_ASSIGNMENT>
Rh35, 1950.00, 35

> <NMREDATA_1D_103Rh>
1950.00, L=Rh35

$$$$
