
  ACD/LABS03242411452D

 33 35  0  0  0  0  0  0  0  0  1 V2000
   20.0140   -3.6534    0.0000 C    0  0  0  0  0  0  0  0  0  0  0  0
   21.2776   -4.1682    0.0000 C    0  0  0  0  0  0  0  0  0  0  0  0
   18.9052   -4.2936    0.0000 C    0  0  0  0  0  0  0  0  0  0  0  0
   21.2742   -5.5535    0.0000 C    0  0  0  0  0  0  0  0  0  0  0  0
   18.8269   -5.6687    0.0000 C    0  0  0  0  0  0  0  0  0  0  0  0
   20.0779   -6.1288    0.0000 C    0  0  0  0  0  0  0  0  0  0  0  0
   11.7467  -11.0911    0.0000 O    0  0  0  0  0  0  0  0  0  0  0  0
   12.9658  -10.4830    0.0000 N    0  0  0  0  0  0  0  0  0  0  0  0
   14.0988  -11.2405    0.0000 C    0  0  0  0  0  0  0  0  0  0  0  0
   13.9607  -12.5991    0.0000 C    0  0  0  0  0  0  0  0  0  0  0  0
   15.3554  -10.7002    0.0000 C    0  0  0  0  0  0  0  0  0  0  0  0
   16.4206  -11.5471    0.0000 C    0  0  0  0  0  0  0  0  0  0  0  0
   15.4412   -9.3883    0.0000 N    0  0  0  0  0  0  0  0  0  0  0  0
   16.2754   -8.4522    0.0000 O    0  0  0  0  0  0  0  0  0  0  0  0
   16.3929   -7.1274    0.0000 Rh   0  0  0  0  0  0  0  0  0  0  0  0
   15.1638   -6.6696    0.0000 C    0  0  0  0  0  0  0  0  0  0  0  0
   13.8826   -6.9649    0.0000 Si   0  0  0  0  0  0  0  0  0  0  0  0
   17.6163   -6.3975    0.0000 P    0  0  0  0  0  0  0  0  0  0  0  0
   18.3745   -7.5911    0.0000 C    0  0  0  0  0  0  0  0  0  0  0  0
   19.7052   -7.7665    0.0000 C    0  0  0  0  0  0  0  0  0  0  0  0
   17.8864   -8.8370    0.0000 C    0  0  0  0  0  0  0  0  0  0  0  0
   20.4501   -8.8650    0.0000 C    0  0  0  0  0  0  0  0  0  0  0  0
   18.4672  -10.0279    0.0000 C    0  0  0  0  0  0  0  0  0  0  0  0
   19.8448  -10.1024    0.0000 C    0  0  0  0  0  0  0  0  0  0  0  0
   16.9125   -5.1717    0.0000 C    0  0  0  0  0  0  0  0  0  0  0  0
   17.3747   -3.9258    0.0000 C    0  0  0  0  0  0  0  0  0  0  0  0
   15.5821   -4.9859    0.0000 C    0  0  0  0  0  0  0  0  0  0  0  0
   16.8450   -2.7172    0.0000 C    0  0  0  0  0  0  0  0  0  0  0  0
   14.8607   -3.8683    0.0000 C    0  0  0  0  0  0  0  0  0  0  0  0
   15.4597   -2.6322    0.0000 C    0  0  0  0  0  0  0  0  0  0  0  0
   12.4889   -7.1399    0.0000 C    0  0  0  0  0  0  0  0  0  0  0  0
   13.4380   -5.6522    0.0000 C    0  0  0  0  0  0  0  0  0  0  0  0
   13.8165   -8.3189    0.0000 C    0  0  0  0  0  0  0  0  0  0  0  0
  1  2  1  0  0  0  0
  1  3  2  0  0  0  0
  2  4  2  0  0  0  0
  3  5  1  0  0  0  0
  4  6  1  0  0  0  0
  5  6  2  0  0  0  0
  7  8  1  0  0  0  0
  8  9  2  0  0  0  0
  9 10  1  0  0  0  0
  9 11  1  0  0  0  0
 11 12  1  0  0  0  0
 11 13  2  0  0  0  0
 13 14  1  0  0  0  0
 15 16  1  0  0  0  0
 14 15  1  0  0  0  0
 16 17  1  0  0  0  0
 15 18  1  0  0  0  0
 19 20  1  0  0  0  0
 19 21  2  0  0  0  0
 20 22  2  0  0  0  0
 21 23  1  0  0  0  0
 22 24  1  0  0  0  0
 23 24  2  0  0  0  0
 18 19  1  0  0  0  0
 25 26  1  0  0  0  0
 25 27  2  0  0  0  0
 26 28  2  0  0  0  0
 27 29  1  0  0  0  0
 28 30  1  0  0  0  0
 29 30  2  0  0  0  0
 18 25  1  0  0  0  0
  5 18  1  0  0  0  0
 17 31  1  0  0  0  0
 17 32  1  0  0  0  0
 17 33  1  0  0  0  0
M  END
> <NMREDATA_VERSION>
1.1

> <NMREDATA_LEVEL>
0

> <NMREDATA_SOLVENT>
DCCl3

> <NMREDATA_TEMPERATURE>
298

> <NMREDATA_FORMULA>
C26H34N2O2PRhSi

> <NMREDATA_SMILES>
O/N=C(/C(=N/O[Rh](P(c1ccccc1)(c1ccccc1)c1ccccc1)C[Si](C)(C)C)/C)\C

> <NMREDATA_ASSIGNMENT>
Rh15, 2169.00, 15

> <NMREDATA_1D_103Rh>
2169.00, L=Rh15

$$$$
