
  ACD/LABS03122418212D

 50 55  0  0  0  0  0  0  0  0  1 V2000
   16.3251   -9.4167    0.0000 N    0  0  0  0  0  0  0  0  0  0  0  0
   21.6411   -3.4893    0.0000 C    0  0  0  0  0  0  0  0  0  0  0  0
   22.3064   -4.6412    0.0000 C    0  0  0  0  0  0  0  0  0  0  0  0
   20.3105   -3.4889    0.0000 C    0  0  0  0  0  0  0  0  0  0  0  0
   21.6415   -5.7929    0.0000 C    0  0  0  0  0  0  0  0  0  0  0  0
   19.6456   -4.6406    0.0000 C    0  0  0  0  0  0  0  0  0  0  0  0
   20.3115   -5.7924    0.0000 C    0  0  0  0  0  0  0  0  0  0  0  0
   20.3129  -10.3990    0.0000 C    0  0  0  0  0  0  0  0  0  0  0  0
   19.6471   -9.2473    0.0000 C    0  0  0  0  0  0  0  0  0  0  0  0
   21.6429  -10.3996    0.0000 C    0  0  0  0  0  0  0  0  0  0  0  0
   20.3120   -8.0956    0.0000 C    0  0  0  0  0  0  0  0  0  0  0  0
   22.3079   -9.2479    0.0000 C    0  0  0  0  0  0  0  0  0  0  0  0
   21.6424   -8.0964    0.0000 C    0  0  0  0  0  0  0  0  0  0  0  0
   17.6512   -8.0950    0.0000 N    0  0  0  0  0  0  0  0  0  0  0  0
   18.3171   -9.2467    0.0000 C    0  0  0  0  0  0  0  0  0  0  0  0
   19.6465   -6.9441    0.0000 P    0  0  0  0  0  0  0  0  0  0  0  0
   15.0111   -8.0950    0.0000 N    0  0  0  0  0  0  0  0  0  0  0  0
   14.3464   -9.2464    0.0000 C    0  0  0  0  0  0  0  0  0  0  0  0
   16.3212   -8.0944    0.0000 Rh   0  0  0  0  0  0  0  0  0  0  0  0
   16.3295   -6.7689    0.0000 H    0  0  0  0  0  0  0  0  0  0  0  0
   14.3411   -6.9512    0.0000 C    0  0  0  0  0  0  0  0  0  0  0  0
   11.0141   -3.4953    0.0000 C    0  0  0  0  0  0  0  0  0  0  0  0
   12.3444   -3.4955    0.0000 C    0  0  0  0  0  0  0  0  0  0  0  0
   10.3494   -4.6466    0.0000 C    0  0  0  0  0  0  0  0  0  0  0  0
   13.0100   -4.6476    0.0000 C    0  0  0  0  0  0  0  0  0  0  0  0
   11.0194   -5.7904    0.0000 C    0  0  0  0  0  0  0  0  0  0  0  0
   12.3453   -5.7989    0.0000 C    0  0  0  0  0  0  0  0  0  0  0  0
   10.3556   -9.2452    0.0000 C    0  0  0  0  0  0  0  0  0  0  0  0
   11.0203   -8.0939    0.0000 C    0  0  0  0  0  0  0  0  0  0  0  0
   11.0208  -10.3971    0.0000 C    0  0  0  0  0  0  0  0  0  0  0  0
   12.3505   -8.0941    0.0000 C    0  0  0  0  0  0  0  0  0  0  0  0
   12.3514  -10.3975    0.0000 C    0  0  0  0  0  0  0  0  0  0  0  0
   13.0161   -9.2462    0.0000 C    0  0  0  0  0  0  0  0  0  0  0  0
   13.0152   -6.9427    0.0000 P    0  0  0  0  0  0  0  0  0  0  0  0
   11.7296  -13.4063    0.0000 C    0  0  0  0  0  0  0  0  0  0  0  0
   11.7303  -12.0760    0.0000 C    0  0  0  0  0  0  0  0  0  0  0  0
   12.8732  -14.0666    0.0000 C    0  0  0  0  0  0  0  0  0  0  0  0
   12.8821  -11.4101    0.0000 C    0  0  0  0  0  0  0  0  0  0  0  0
   14.0249  -13.4007    0.0000 C    0  0  0  0  0  0  0  0  0  0  0  0
   14.0257  -12.0704    0.0000 C    0  0  0  0  0  0  0  0  0  0  0  0
   17.4801  -14.0647    0.0000 C    0  0  0  0  0  0  0  0  0  0  0  0
   16.3287  -13.4000    0.0000 C    0  0  0  0  0  0  0  0  0  0  0  0
   18.6320  -13.3995    0.0000 C    0  0  0  0  0  0  0  0  0  0  0  0
   16.3289  -12.0698    0.0000 C    0  0  0  0  0  0  0  0  0  0  0  0
   18.6279  -12.0766    0.0000 C    0  0  0  0  0  0  0  0  0  0  0  0
   17.4766  -11.4119    0.0000 C    0  0  0  0  0  0  0  0  0  0  0  0
   15.1736  -10.0822    0.0000 C    0  0  0  0  0  0  0  0  0  0  0  0
   15.1728  -11.4126    0.0000 P    0  0  0  0  0  0  0  0  0  0  0  0
   17.4768  -10.0817    0.0000 C    0  0  0  0  0  0  0  0  0  0  0  0
   18.3162   -6.9433    0.0000 C    0  0  0  0  0  0  0  0  0  0  0  0
  2  3  1  0  0  0  0
  2  4  2  0  0  0  0
  3  5  2  0  0  0  0
  4  6  1  0  0  0  0
  5  7  1  0  0  0  0
  6  7  2  0  0  0  0
  8  9  1  0  0  0  0
  8 10  2  0  0  0  0
  9 11  2  0  0  0  0
 10 12  1  0  0  0  0
 11 13  1  0  0  0  0
 12 13  2  0  0  0  0
 14 15  2  0  0  0  0
 11 16  1  0  0  0  0
  7 16  1  0  0  0  0
 17 18  2  0  0  0  0
 19 20  1  0  0  0  0
 17 19  1  0  0  0  0
 14 19  1  0  0  0  0
  1 19  1  0  0  0  0
 17 21  1  0  0  0  0
 22 23  1  0  0  0  0
 22 24  2  0  0  0  0
 23 25  2  0  0  0  0
 24 26  1  0  0  0  0
 25 27  1  0  0  0  0
 26 27  2  0  0  0  0
 28 29  1  0  0  0  0
 28 30  2  0  0  0  0
 29 31  2  0  0  0  0
 30 32  1  0  0  0  0
 31 33  1  0  0  0  0
 32 33  2  0  0  0  0
 31 34  1  0  0  0  0
 27 34  1  0  0  0  0
 21 34  1  0  0  0  0
 35 36  1  0  0  0  0
 35 37  2  0  0  0  0
 36 38  2  0  0  0  0
 37 39  1  0  0  0  0
 38 40  1  0  0  0  0
 39 40  2  0  0  0  0
 41 42  1  0  0  0  0
 41 43  2  0  0  0  0
 42 44  2  0  0  0  0
 43 45  1  0  0  0  0
 44 46  1  0  0  0  0
 45 46  2  0  0  0  0
 47 48  1  0  0  0  0
 44 48  1  0  0  0  0
 40 48  1  0  0  0  0
  1 47  1  0  0  0  0
 49  1  2  0  0  0  0
 14 50  1  0  0  0  0
 50 16  1  0  0  0  0
M  END
> <NMREDATA_VERSION>
1.1

> <NMREDATA_LEVEL>
0

> <NMREDATA_SOLVENT>
CD2Cl2

> <NMREDATA_TEMPERATURE>
293

> <NMREDATA_FORMULA>
C42H46N3P3Rh

> <NMREDATA_SMILES>
C=N([RhH](N(=C)CP(c1ccccc1)c1ccccc1)N(=C)CP(c1ccccc1)c1ccccc1)CP(c1ccccc1)c1ccccc1

> <NMREDATA_ASSIGNMENT>
Rh19, -266.00, 19

> <NMREDATA_1D_103Rh>
-266.00, L=Rh19

$$$$
