
  ACD/LABS03292412472D

 67 76  0  0  0  0  0  0  0  0  1 V2000
   27.2707  -19.5031    0.0000 C    0  0  0  0  0  0  0  0  0  0  0  0
   27.7142  -20.7535    0.0000 C    0  0  0  0  0  0  0  0  0  0  0  0
   25.9585  -19.2636    0.0000 C    0  0  0  0  0  0  0  0  0  0  0  0
   26.8628  -21.7734    0.0000 C    0  0  0  0  0  0  0  0  0  0  0  0
   25.0979  -20.2836    0.0000 C    0  0  0  0  0  0  0  0  0  0  0  0
   25.5505  -21.5339    0.0000 C    0  0  0  0  0  0  0  0  0  0  0  0
   15.8849  -18.1731    0.0000 C    0  0  0  0  0  0  0  0  0  0  0  0
   15.4414  -16.9228    0.0000 C    0  0  0  0  0  0  0  0  0  0  0  0
   17.1971  -18.4035    0.0000 C    0  0  0  0  0  0  0  0  0  0  0  0
   16.2928  -15.9120    0.0000 C    0  0  0  0  0  0  0  0  0  0  0  0
   18.0577  -17.3932    0.0000 C    0  0  0  0  0  0  0  0  0  0  0  0
   17.6051  -16.1424    0.0000 C    0  0  0  0  0  0  0  0  0  0  0  0
   18.4388  -18.1026    0.0000 C    0  0  0  0  0  0  0  0  0  0  0  0
   17.7736  -19.2459    0.0000 C    0  0  0  0  0  0  0  0  0  0  0  0
   19.7688  -18.1026    0.0000 C    0  0  0  0  0  0  0  0  0  0  0  0
   18.4388  -20.3988    0.0000 C    0  0  0  0  0  0  0  0  0  0  0  0
   20.4340  -19.2459    0.0000 C    0  0  0  0  0  0  0  0  0  0  0  0
   19.7688  -20.3988    0.0000 C    0  0  0  0  0  0  0  0  0  0  0  0
   22.5440  -21.4096    0.0000 C    0  0  0  0  0  0  0  0  0  0  0  0
   22.3222  -22.7218    0.0000 C    0  0  0  0  0  0  0  0  0  0  0  0
   21.5336  -20.5581    0.0000 C    0  0  0  0  0  0  0  0  0  0  0  0
   21.0815  -23.1744    0.0000 C    0  0  0  0  0  0  0  0  0  0  0  0
   20.2924  -21.0107    0.0000 C    0  0  0  0  0  0  0  0  0  0  0  0
   20.0616  -22.3230    0.0000 C    0  0  0  0  0  0  0  0  0  0  0  0
   22.9078  -17.2597    0.0000 C    0  0  0  0  0  0  0  0  0  0  0  0
   22.9078  -15.9297    0.0000 C    0  0  0  0  0  0  0  0  0  0  0  0
   21.7549  -17.9250    0.0000 C    0  0  0  0  0  0  0  0  0  0  0  0
   21.7549  -15.2645    0.0000 C    0  0  0  0  0  0  0  0  0  0  0  0
   20.6116  -17.2597    0.0000 C    0  0  0  0  0  0  0  0  0  0  0  0
   20.6116  -15.9297    0.0000 C    0  0  0  0  0  0  0  0  0  0  0  0
   23.0672  -19.0155    0.0000 Rh   0  0  0  0  0  0  0  0  0  0  0  0
   24.0871  -19.8756    0.0000 H    0  0  0  0  0  0  0  0  0  0  0  0
   23.5284  -17.7743    0.0000 H    0  0  0  0  0  0  0  0  0  0  0  0
   21.7549  -19.2459    0.0000 P    0  0  0  0  0  0  0  0  0  0  0  0
   25.5861  -17.5880    0.0000 C    0  0  0  0  0  0  0  0  0  0  0  0
   25.5947  -16.2580    0.0000 C    0  0  0  0  0  0  0  0  0  0  0  0
   26.7385  -18.2619    0.0000 C    0  0  0  0  0  0  0  0  0  0  0  0
   26.7476  -15.6014    0.0000 C    0  0  0  0  0  0  0  0  0  0  0  0
   27.8914  -17.5967    0.0000 C    0  0  0  0  0  0  0  0  0  0  0  0
   27.9005  -16.2667    0.0000 N    0  0  0  0  0  0  0  0  0  0  0  0
   18.4657  -15.1316    0.0000 P    0  0  0  0  0  0  0  0  0  0  0  0
   20.3366  -12.9146    0.0000 C    0  0  0  0  0  0  0  0  0  0  0  0
   19.8845  -11.6642    0.0000 C    0  0  0  0  0  0  0  0  0  0  0  0
   21.6397  -13.1454    0.0000 C    0  0  0  0  0  0  0  0  0  0  0  0
   20.7446  -10.6448    0.0000 C    0  0  0  0  0  0  0  0  0  0  0  0
   22.4912  -12.1341    0.0000 C    0  0  0  0  0  0  0  0  0  0  0  0
   22.0477  -10.8838    0.0000 C    0  0  0  0  0  0  0  0  0  0  0  0
   17.4457  -14.2714    0.0000 C    0  0  0  0  0  0  0  0  0  0  0  0
   16.1954  -14.7236    0.0000 C    0  0  0  0  0  0  0  0  0  0  0  0
   17.6852  -12.9592    0.0000 C    0  0  0  0  0  0  0  0  0  0  0  0
   15.1841  -13.8635    0.0000 C    0  0  0  0  0  0  0  0  0  0  0  0
   16.6653  -12.0991    0.0000 C    0  0  0  0  0  0  0  0  0  0  0  0
   15.4150  -12.5512    0.0000 C    0  0  0  0  0  0  0  0  0  0  0  0
   22.8281  -20.3277    0.0000 S    0  0  0  0  0  0  0  0  0  0  0  0
   24.6899  -22.5534    0.0000 C    0  0  0  0  0  0  0  0  0  0  0  0
   24.0161  -23.6976    0.0000 C    0  0  0  0  0  0  0  0  0  0  0  0
   22.6861  -23.6885    0.0000 C    0  0  0  0  0  0  0  0  0  0  0  0
   24.6813  -24.8505    0.0000 C    0  0  0  0  0  0  0  0  0  0  0  0
   22.0208  -24.8414    0.0000 C    0  0  0  0  0  0  0  0  0  0  0  0
   24.0074  -26.0029    0.0000 C    0  0  0  0  0  0  0  0  0  0  0  0
   22.6769  -25.9943    0.0000 C    0  0  0  0  0  0  0  0  0  0  0  0
   25.7099  -23.4048    0.0000 C    0  0  0  0  0  0  0  0  0  0  0  0
   26.9602  -22.9613    0.0000 C    0  0  0  0  0  0  0  0  0  0  0  0
   25.4704  -24.7175    0.0000 C    0  0  0  0  0  0  0  0  0  0  0  0
   27.9715  -23.8128    0.0000 C    0  0  0  0  0  0  0  0  0  0  0  0
   26.4903  -25.5777    0.0000 C    0  0  0  0  0  0  0  0  0  0  0  0
   27.7406  -25.1250    0.0000 C    0  0  0  0  0  0  0  0  0  0  0  0
  1  2  1  0  0  0  0
  1  3  2  0  0  0  0
  2  4  2  0  0  0  0
  3  5  1  0  0  0  0
  4  6  1  0  0  0  0
  5  6  2  0  0  0  0
  7  8  1  0  0  0  0
  7  9  2  0  0  0  0
  8 10  2  0  0  0  0
  9 11  1  0  0  0  0
 10 12  1  0  0  0  0
 11 12  2  0  0  0  0
 13 14  2  0  0  0  0
 13 15  1  0  0  0  0
 14 16  1  0  0  0  0
 15 17  2  0  0  0  0
 16 18  2  0  0  0  0
 17 18  1  0  0  0  0
 19 20  2  0  0  0  0
 19 21  1  0  0  0  0
 20 22  1  0  0  0  0
 21 23  2  0  0  0  0
 22 24  2  0  0  0  0
 23 24  1  0  0  0  0
 25 26  2  0  0  0  0
 25 27  1  0  0  0  0
 26 28  1  0  0  0  0
 27 29  2  0  0  0  0
 28 30  2  0  0  0  0
 29 30  1  0  0  0  0
 31 32  1  0  0  0  0
 31 33  1  0  0  0  0
 31 34  1  0  0  0  0
 27 34  1  0  0  0  0
 21 34  1  0  0  0  0
 17 34  1  0  0  0  0
 35 36  1  0  0  0  0
 35 37  2  0  0  0  0
 36 38  2  0  0  0  0
 37 39  1  0  0  0  0
 38 40  1  0  0  0  0
 39 40  2  0  0  0  0
 31 35  1  0  0  0  0
 31 41  1  0  0  0  0
 42 43  1  0  0  0  0
 42 44  2  0  0  0  0
 43 45  2  0  0  0  0
 44 46  1  0  0  0  0
 45 47  1  0  0  0  0
 46 47  2  0  0  0  0
 41 42  1  0  0  0  0
 48 49  1  0  0  0  0
 48 50  2  0  0  0  0
 49 51  2  0  0  0  0
 50 52  1  0  0  0  0
 51 53  1  0  0  0  0
 52 53  2  0  0  0  0
 41 48  1  0  0  0  0
 12 41  1  0  0  0  0
 31 54  1  0  0  0  0
 54 55  1  0  0  0  0
 56 57  1  0  0  0  0
 56 58  2  0  0  0  0
 57 59  2  0  0  0  0
 58 60  1  0  0  0  0
 59 61  1  0  0  0  0
 60 61  2  0  0  0  0
 55 56  1  0  0  0  0
 62 63  1  0  0  0  0
 62 64  2  0  0  0  0
 63 65  2  0  0  0  0
 64 66  1  0  0  0  0
 65 67  1  0  0  0  0
 66 67  2  0  0  0  0
 55 62  1  0  0  0  0
  6 55  1  0  0  0  0
M  END
> <NMREDATA_VERSION>
1.1

> <NMREDATA_LEVEL>
0

> <NMREDATA_SOLVENT>
toluene-d8

> <NMREDATA_TEMPERATURE>
248

> <NMREDATA_FORMULA>
C60H53NP2RhS

> <NMREDATA_SMILES>
c1ccc(cc1)C(c1ccccc1)(c1ccccc1)S[RhH2](P(c1ccccc1)(c1ccccc1)c1ccccc1)(P(c1ccccc1)(c1ccccc1)c1ccccc1)c1ccncc1

> <NMREDATA_ASSIGNMENT>
Rh31, 155.00, 31

> <NMREDATA_1D_103Rh>
155.00, L=Rh31

$$$$
