
  ACD/LABS04022410252D

 19 18  0  0  0  0  0  0  0  0  2 V2000
   16.9204  -18.1509    0.0000 O    0  0  0  0  0  0  0  0  0  0  0  0
   15.5883  -18.1473    0.0000 H    0  0  0  0  0  0  0  0  0  0  0  0
   16.2456  -17.0010    0.0000 H    0  0  0  0  0  0  0  0  0  0  0  0
   19.3002  -19.5499    0.0000 N    0  0  0  0  0  0  0  0  0  0  0  0
   20.6419  -19.5052    0.0000 O    0  5  0  0  0  0  0  0  0  0  0  0
   19.9260  -20.7218    0.0000 O    0  0  0  0  0  0  0  0  0  0  0  0
   19.3035  -18.1124    0.0000 O    0  0  0  0  0  0  0  0  0  0  0  0
   19.9341  -16.9451    0.0000 H    0  0  0  0  0  0  0  0  0  0  0  0
   20.6483  -18.1514    0.0000 H    0  0  0  0  0  0  0  0  0  0  0  0
   18.1013  -18.8326    0.0000 Rh   0  0  0  0  0  0  0  0  0  0  0  0
   18.0474  -20.4821    0.0000 N    0  0  0  0  0  0  0  0  0  0  0  0
   17.3065  -21.5430    0.0000 O    0  5  0  0  0  0  0  0  0  0  0  0
   18.8313  -21.5311    0.0000 O    0  0  0  0  0  0  0  0  0  0  0  0
   16.6544  -19.6359    0.0000 N    0  0  0  0  0  0  0  0  0  0  0  0
   15.3458  -19.5165    0.0000 O    0  5  0  0  0  0  0  0  0  0  0  0
   16.1284  -20.8161    0.0000 O    0  0  0  0  0  0  0  0  0  0  0  0
   18.0617  -17.1731    0.0000 O    0  0  0  0  0  0  0  0  0  0  0  0
   17.3099  -16.0976    0.0000 H    0  0  0  0  0  0  0  0  0  0  0  0
   18.8399  -16.1239    0.0000 H    0  0  0  0  0  0  0  0  0  0  0  0
  1  2  1  0  0  0  0
  1  3  1  0  0  0  0
  4  5  1  0  0  0  0
  4  6  2  0  0  0  0
  7  8  1  0  0  0  0
  7  9  1  0  0  0  0
 11 12  1  0  0  0  0
 11 13  2  0  0  0  0
 10 11  1  0  0  0  0
 14 15  1  0  0  0  0
 14 16  2  0  0  0  0
 10 14  1  0  0  0  0
 17 18  1  0  0  0  0
 17 19  1  0  0  0  0
 10 17  1  0  0  0  0
  7 10  1  0  0  0  0
  4 10  1  0  0  0  0
  1 10  1  0  0  0  0
M  END
> <NMREDATA_VERSION>
1.1

> <NMREDATA_LEVEL>
0

> <NMREDATA_SOLVENT>
H2O

> <NMREDATA_TEMPERATURE>
298

> <NMREDATA_FORMULA>
H12N3O9Rh

> <NMREDATA_SMILES>
ON(=O)[Rh](N(=O)O)(N(=O)O)([OH2])([OH2])[OH2]

> <NMREDATA_ASSIGNMENT>
Rh10, 6570.00, 10

> <NMREDATA_1D_103Rh>
6570.00, L=Rh10

$$$$
