
  ACD/LABS03242411472D

 28 28  0  0  0  0  0  0  0  0  1 V2000
   13.1561  -12.5934    0.0000 O    0  0  0  0  0  0  0  0  0  0  0  0
   14.3080  -11.9284    0.0000 N    0  0  0  0  0  0  0  0  0  0  0  0
   15.4598  -12.5934    0.0000 C    0  0  0  0  0  0  0  0  0  0  0  0
   15.4598  -13.9234    0.0000 C    0  0  0  0  0  0  0  0  0  0  0  0
   16.6116  -11.9284    0.0000 C    0  0  0  0  0  0  0  0  0  0  0  0
   17.7634  -12.5934    0.0000 C    0  0  0  0  0  0  0  0  0  0  0  0
   16.6116  -10.5984    0.0000 N    0  0  0  0  0  0  0  0  0  0  0  0
   17.7634   -9.9334    0.0000 O    0  0  0  0  0  0  0  0  0  0  0  0
   11.7784  -12.0589    0.0000 O    0  0  0  0  0  0  0  0  0  0  0  0
   12.4434  -10.9070    0.0000 N    0  0  0  0  0  0  0  0  0  0  0  0
   13.7734  -10.9070    0.0000 C    0  0  0  0  0  0  0  0  0  0  0  0
   14.4384  -12.0589    0.0000 C    0  0  0  0  0  0  0  0  0  0  0  0
   14.4384   -9.7552    0.0000 C    0  0  0  0  0  0  0  0  0  0  0  0
   13.7734   -8.6034    0.0000 C    0  0  0  0  0  0  0  0  0  0  0  0
   15.7684   -9.7552    0.0000 N    0  0  0  0  0  0  0  0  0  0  0  0
   16.4334   -8.6034    0.0000 O    0  0  0  0  0  0  0  0  0  0  0  0
   17.7634   -8.6034    0.0000 Rh   0  0  0  0  0  0  0  0  0  0  0  0
   19.0934   -8.6034    0.0000 C    0  0  0  0  0  0  0  0  0  0  0  0
   19.7584   -9.7552    0.0000 C    0  0  0  0  0  0  0  0  0  0  0  0
   17.7634   -7.2734    0.0000 N    0  0  0  0  0  0  0  0  0  0  0  0
   16.6116   -6.6084    0.0000 C    0  0  0  0  0  0  0  0  0  0  0  0
   18.9152   -6.6084    0.0000 C    0  0  0  0  0  0  0  0  0  0  0  0
   16.6116   -5.2784    0.0000 C    0  0  0  0  0  0  0  0  0  0  0  0
   18.9152   -5.2784    0.0000 C    0  0  0  0  0  0  0  0  0  0  0  0
   17.7634   -4.6134    0.0000 C    0  0  0  0  0  0  0  0  0  0  0  0
   20.9102   -9.0902    0.0000 F    0  0  0  0  0  0  0  0  0  0  0  0
   18.6066  -10.4202    0.0000 F    0  0  0  0  0  0  0  0  0  0  0  0
   20.4234  -10.9070    0.0000 F    0  0  0  0  0  0  0  0  0  0  0  0
  1  2  1  0  0  0  0
  2  3  2  0  0  0  0
  3  4  1  0  0  0  0
  3  5  1  0  0  0  0
  5  6  1  0  0  0  0
  5  7  2  0  0  0  0
  7  8  1  0  0  0  0
  9 10  1  0  0  0  0
 10 11  2  0  0  0  0
 11 12  1  0  0  0  0
 11 13  1  0  0  0  0
 13 14  1  0  0  0  0
 13 15  2  0  0  0  0
 15 16  1  0  0  0  0
 16 17  1  0  0  0  0
 17 18  1  0  0  0  0
  8 17  1  0  0  0  0
 18 19  1  0  0  0  0
 20 21  1  0  0  0  0
 20 22  2  0  0  0  0
 21 23  2  0  0  0  0
 22 24  1  0  0  0  0
 23 25  1  0  0  0  0
 24 25  2  0  0  0  0
 17 20  1  0  0  0  0
 19 26  1  0  0  0  0
 19 27  1  0  0  0  0
 19 28  1  0  0  0  0
M  END
> <NMREDATA_VERSION>
1.1

> <NMREDATA_LEVEL>
0

> <NMREDATA_SOLVENT>
DCCl3

> <NMREDATA_TEMPERATURE>
298

> <NMREDATA_FORMULA>
C15H22F3N5O4Rh

> <NMREDATA_SMILES>
O/N=C(/C(=N/O[Rh](N1=CC=CC=C1)(CC(F)(F)F)O/N=C(/C(=N/O)/C)\C)/C)\C

> <NMREDATA_ASSIGNMENT>
Rh17, 2741.00, 17

> <NMREDATA_1D_103Rh>
2741.00, L=Rh17

$$$$
