
  ACD/LABS03152413182D

 22 22  0  0  0  0  0  0  0  0  1 V2000
   11.4572   -7.4993    0.0000 Rh   0  0  0  0  0  0  0  0  0  0  0  0
   12.7783   -7.4993    0.0000 Si   0  0  0  0  0  0  0  0  0  0  0  0
   12.7783   -6.1693    0.0000 C    0  0  0  0  0  0  0  0  0  0  0  0
   12.7783   -8.8203    0.0000 C    0  0  0  0  0  0  0  0  0  0  0  0
   16.7593   -7.4993    0.0000 C    0  0  0  0  0  0  0  0  0  0  0  0
   16.1033   -8.6430    0.0000 C    0  0  0  0  0  0  0  0  0  0  0  0
   16.0943   -6.3555    0.0000 C    0  0  0  0  0  0  0  0  0  0  0  0
   14.7733   -8.6430    0.0000 C    0  0  0  0  0  0  0  0  0  0  0  0
   14.7643   -6.3555    0.0000 C    0  0  0  0  0  0  0  0  0  0  0  0
   14.1083   -7.4993    0.0000 C    0  0  0  0  0  0  0  0  0  0  0  0
   11.4572  -10.3896    0.0000 P    0  0  0  0  0  0  0  0  0  0  0  0
   12.7783  -10.3896    0.0000 C    0  0  0  0  0  0  0  0  0  0  0  0
   10.1272  -10.3985    0.0000 C    0  0  0  0  0  0  0  0  0  0  0  0
   11.4572  -11.7198    0.0000 C    0  0  0  0  0  0  0  0  0  0  0  0
   11.4483   -4.6000    0.0000 P    0  0  0  0  0  0  0  0  0  0  0  0
   10.1272   -7.4993    0.0000 P    0  0  0  0  0  0  0  0  0  0  0  0
   12.7783   -4.6000    0.0000 C    0  0  0  0  0  0  0  0  0  0  0  0
   10.1183   -4.6090    0.0000 C    0  0  0  0  0  0  0  0  0  0  0  0
   11.4483   -3.2787    0.0000 C    0  0  0  0  0  0  0  0  0  0  0  0
   10.1272   -8.8293    0.0000 C    0  0  0  0  0  0  0  0  0  0  0  0
   10.1183   -6.1782    0.0000 C    0  0  0  0  0  0  0  0  0  0  0  0
    8.7972   -7.4993    0.0000 C    0  0  0  0  0  0  0  0  0  0  0  0
  1  2  1  0  0  0  0
  2  3  1  0  0  0  0
  2  4  1  0  0  0  0
  5  6  1  0  0  0  0
  5  7  2  0  0  0  0
  6  8  2  0  0  0  0
  7  9  1  0  0  0  0
  8 10  1  0  0  0  0
  9 10  2  0  0  0  0
  2 10  1  0  0  0  0
  1 11  1  0  0  0  0
 11 12  1  0  0  0  0
 11 13  1  0  0  0  0
 11 14  1  0  0  0  0
  1 15  1  0  0  0  0
  1 16  1  0  0  0  0
 15 17  1  0  0  0  0
 15 18  1  0  0  0  0
 15 19  1  0  0  0  0
 16 20  1  0  0  0  0
 16 21  1  0  0  0  0
 16 22  1  0  0  0  0
M  END
> <NMREDATA_VERSION>
1.1

> <NMREDATA_LEVEL>
0

> <NMREDATA_SOLVENT>
C6D6

> <NMREDATA_TEMPERATURE>
293

> <NMREDATA_FORMULA>
C17H41P3RhSi

> <NMREDATA_SMILES>
C[Si]([Rh](P(C)(C)C)(P(C)(C)C)P(C)(C)C)(c1ccccc1)C

> <NMREDATA_ASSIGNMENT>
Rh1, 802.00, 1

> <NMREDATA_1D_103Rh>
802.00, L=Rh1

$$$$
