
  ACD/LABS03292412502D

 64 72  0  0  0  0  0  0  0  0  1 V2000
   19.1431  -14.9945    0.0000 C    0  0  0  0  0  0  0  0  0  0  0  0
   17.8928  -14.5422    0.0000 C    0  0  0  0  0  0  0  0  0  0  0  0
   20.1632  -14.1342    0.0000 C    0  0  0  0  0  0  0  0  0  0  0  0
   17.6626  -13.2296    0.0000 C    0  0  0  0  0  0  0  0  0  0  0  0
   19.9236  -12.8216    0.0000 C    0  0  0  0  0  0  0  0  0  0  0  0
   18.6734  -12.3693    0.0000 C    0  0  0  0  0  0  0  0  0  0  0  0
   23.3901  -11.4383    0.0000 C    0  0  0  0  0  0  0  0  0  0  0  0
   22.5388  -12.4580    0.0000 C    0  0  0  0  0  0  0  0  0  0  0  0
   24.7027  -11.6690    0.0000 C    0  0  0  0  0  0  0  0  0  0  0  0
   23.0001  -13.7083    0.0000 C    0  0  0  0  0  0  0  0  0  0  0  0
   25.1639  -12.9103    0.0000 C    0  0  0  0  0  0  0  0  0  0  0  0
   24.3127  -13.9389    0.0000 C    0  0  0  0  0  0  0  0  0  0  0  0
   24.6051  -20.3583    0.0000 C    0  0  0  0  0  0  0  0  0  0  0  0
   24.3834  -21.6709    0.0000 C    0  0  0  0  0  0  0  0  0  0  0  0
   23.5854  -19.5075    0.0000 C    0  0  0  0  0  0  0  0  0  0  0  0
   23.1331  -22.1232    0.0000 C    0  0  0  0  0  0  0  0  0  0  0  0
   22.3351  -19.9593    0.0000 C    0  0  0  0  0  0  0  0  0  0  0  0
   22.1134  -21.2719    0.0000 C    0  0  0  0  0  0  0  0  0  0  0  0
   20.9344  -21.3785    0.0000 C    0  0  0  0  0  0  0  0  0  0  0  0
   20.0831  -22.3981    0.0000 C    0  0  0  0  0  0  0  0  0  0  0  0
   20.4736  -20.1282    0.0000 C    0  0  0  0  0  0  0  0  0  0  0  0
   18.7710  -22.1675    0.0000 C    0  0  0  0  0  0  0  0  0  0  0  0
   19.1610  -19.8975    0.0000 C    0  0  0  0  0  0  0  0  0  0  0  0
   18.3097  -20.9262    0.0000 C    0  0  0  0  0  0  0  0  0  0  0  0
   21.3154  -16.8121    0.0000 C    0  0  0  0  0  0  0  0  0  0  0  0
   21.9804  -15.6595    0.0000 C    0  0  0  0  0  0  0  0  0  0  0  0
   21.9804  -17.9554    0.0000 C    0  0  0  0  0  0  0  0  0  0  0  0
   23.3104  -15.6595    0.0000 C    0  0  0  0  0  0  0  0  0  0  0  0
   23.3104  -17.9554    0.0000 C    0  0  0  0  0  0  0  0  0  0  0  0
   23.9754  -16.8121    0.0000 C    0  0  0  0  0  0  0  0  0  0  0  0
   19.1077  -17.2460    0.0000 Rh   0  0  0  0  0  0  0  0  0  0  0  0
   17.8574  -17.7073    0.0000 H    0  0  0  0  0  0  0  0  0  0  0  0
   19.3294  -15.9519    0.0000 H    0  0  0  0  0  0  0  0  0  0  0  0
   21.3154  -19.1080    0.0000 P    0  0  0  0  0  0  0  0  0  0  0  0
   24.7649  -15.1803    0.0000 P    0  0  0  0  0  0  0  0  0  0  0  0
   25.4299  -16.3334    0.0000 C    0  0  0  0  0  0  0  0  0  0  0  0
   26.7599  -16.3334    0.0000 C    0  0  0  0  0  0  0  0  0  0  0  0
   24.7649  -17.4766    0.0000 C    0  0  0  0  0  0  0  0  0  0  0  0
   27.4249  -17.4766    0.0000 C    0  0  0  0  0  0  0  0  0  0  0  0
   25.4299  -18.6293    0.0000 C    0  0  0  0  0  0  0  0  0  0  0  0
   26.7599  -18.6293    0.0000 C    0  0  0  0  0  0  0  0  0  0  0  0
   26.0152  -14.7285    0.0000 C    0  0  0  0  0  0  0  0  0  0  0  0
   27.0349  -15.5793    0.0000 C    0  0  0  0  0  0  0  0  0  0  0  0
   26.2454  -13.4159    0.0000 C    0  0  0  0  0  0  0  0  0  0  0  0
   28.2852  -15.1275    0.0000 C    0  0  0  0  0  0  0  0  0  0  0  0
   27.4957  -12.9636    0.0000 C    0  0  0  0  0  0  0  0  0  0  0  0
   28.5158  -13.8149    0.0000 C    0  0  0  0  0  0  0  0  0  0  0  0
   16.8821  -15.4019    0.0000 P    0  0  0  0  0  0  0  0  0  0  0  0
   15.6139  -12.1123    0.0000 C    0  0  0  0  0  0  0  0  0  0  0  0
   16.4741  -13.1320    0.0000 C    0  0  0  0  0  0  0  0  0  0  0  0
   14.3018  -12.3519    0.0000 C    0  0  0  0  0  0  0  0  0  0  0  0
   16.0218  -14.3823    0.0000 C    0  0  0  0  0  0  0  0  0  0  0  0
   13.8495  -13.6022    0.0000 C    0  0  0  0  0  0  0  0  0  0  0  0
   14.7098  -14.6219    0.0000 C    0  0  0  0  0  0  0  0  0  0  0  0
   14.5853  -18.0619    0.0000 C    0  0  0  0  0  0  0  0  0  0  0  0
   15.7384  -17.3880    0.0000 C    0  0  0  0  0  0  0  0  0  0  0  0
   13.4326  -17.4059    0.0000 C    0  0  0  0  0  0  0  0  0  0  0  0
   15.7294  -16.0674    0.0000 C    0  0  0  0  0  0  0  0  0  0  0  0
   13.4236  -16.0849    0.0000 C    0  0  0  0  0  0  0  0  0  0  0  0
   14.5768  -15.4109    0.0000 C    0  0  0  0  0  0  0  0  0  0  0  0
   18.8771  -18.5586    0.0000 O    0  0  0  0  0  0  0  0  0  0  0  0
   17.6268  -19.0194    0.0000 C    0  0  0  0  0  0  0  0  0  0  0  0
   16.6071  -18.1681    0.0000 O    0  0  0  0  0  0  0  0  0  0  0  0
   17.3966  -20.3319    0.0000 C    0  0  0  0  0  0  0  0  0  0  0  0
  1  2  1  0  0  0  0
  1  3  2  0  0  0  0
  2  4  2  0  0  0  0
  3  5  1  0  0  0  0
  4  6  1  0  0  0  0
  5  6  2  0  0  0  0
  7  8  1  0  0  0  0
  7  9  2  0  0  0  0
  8 10  2  0  0  0  0
  9 11  1  0  0  0  0
 10 12  1  0  0  0  0
 11 12  2  0  0  0  0
 13 14  2  0  0  0  0
 13 15  1  0  0  0  0
 14 16  1  0  0  0  0
 15 17  2  0  0  0  0
 16 18  2  0  0  0  0
 17 18  1  0  0  0  0
 19 20  2  0  0  0  0
 19 21  1  0  0  0  0
 20 22  1  0  0  0  0
 21 23  2  0  0  0  0
 22 24  2  0  0  0  0
 23 24  1  0  0  0  0
 25 26  2  0  0  0  0
 25 27  1  0  0  0  0
 26 28  1  0  0  0  0
 27 29  2  0  0  0  0
 28 30  2  0  0  0  0
 29 30  1  0  0  0  0
 31 32  1  0  0  0  0
 31 33  1  0  0  0  0
 31 34  1  0  0  0  0
 27 34  1  0  0  0  0
 21 34  1  0  0  0  0
 17 34  1  0  0  0  0
 31 35  1  0  0  0  0
 36 37  1  0  0  0  0
 36 38  2  0  0  0  0
 37 39  2  0  0  0  0
 38 40  1  0  0  0  0
 39 41  1  0  0  0  0
 40 41  2  0  0  0  0
 35 36  1  0  0  0  0
 42 43  1  0  0  0  0
 42 44  2  0  0  0  0
 43 45  2  0  0  0  0
 44 46  1  0  0  0  0
 45 47  1  0  0  0  0
 46 47  2  0  0  0  0
 35 42  1  0  0  0  0
 12 35  1  0  0  0  0
 31 48  1  0  0  0  0
  2 48  1  0  0  0  0
 49 50  1  0  0  0  0
 49 51  2  0  0  0  0
 50 52  2  0  0  0  0
 51 53  1  0  0  0  0
 52 54  1  0  0  0  0
 53 54  2  0  0  0  0
 48 52  1  0  0  0  0
 55 56  1  0  0  0  0
 55 57  2  0  0  0  0
 56 58  2  0  0  0  0
 57 59  1  0  0  0  0
 58 60  1  0  0  0  0
 59 60  2  0  0  0  0
 48 58  1  0  0  0  0
 31 61  1  0  0  0  0
 61 62  1  0  0  0  0
 62 63  2  0  0  0  0
 62 64  1  0  0  0  0
M  END
> <NMREDATA_VERSION>
1.1

> <NMREDATA_LEVEL>
0

> <NMREDATA_SOLVENT>
toluene-d8

> <NMREDATA_TEMPERATURE>
248

> <NMREDATA_FORMULA>
C56H53O2P3Rh

> <NMREDATA_SMILES>
CC(=O)O[RhH2](P(c1ccccc1)(c1ccccc1)c1ccccc1)(P(c1ccccc1)(c1ccccc1)c1ccccc1)P(c1ccccc1)(c1ccccc1)c1ccccc1

> <NMREDATA_ASSIGNMENT>
Rh31, 207.00, 31

> <NMREDATA_1D_103Rh>
207.00, L=Rh31

$$$$
