
  ACD/LABS03252415502D

 38 43  0  0  0  0  0  0  0  0  1 V2000
   11.2136   -2.6811    0.0000 C    0  0  0  0  0  0  0  0  0  0  0  0
   12.3577   -1.9977    0.0000 C    0  0  0  0  0  0  0  0  0  0  0  0
   11.2223   -4.0116    0.0000 C    0  0  0  0  0  0  0  0  0  0  0  0
   13.5108   -2.6542    0.0000 C    0  0  0  0  0  0  0  0  0  0  0  0
   12.3845   -4.6591    0.0000 C    0  0  0  0  0  0  0  0  0  0  0  0
   13.5195   -3.9851    0.0000 C    0  0  0  0  0  0  0  0  0  0  0  0
   11.8433   -8.7573    0.0000 B    0  0  0  0  0  0  0  0  0  0  0  0
   15.3561   -7.9146    0.0000 N    0  0  0  0  0  0  0  0  0  0  0  0
   16.6866   -7.8790    0.0000 C    0  0  0  0  0  0  0  0  0  0  0  0
   14.9122   -6.6731    0.0000 N    0  0  0  0  0  0  0  0  0  0  0  0
   17.0680   -6.6196    0.0000 C    0  0  0  0  0  0  0  0  0  0  0  0
   15.9680   -5.8657    0.0000 C    0  0  0  0  0  0  0  0  0  0  0  0
    9.6253   -7.3293    0.0000 N    0  0  0  0  0  0  0  0  0  0  0  0
   10.2022   -6.1230    0.0000 N    0  0  0  0  0  0  0  0  0  0  0  0
    8.3126   -7.1519    0.0000 C    0  0  0  0  0  0  0  0  0  0  0  0
    9.2352   -5.2091    0.0000 C    0  0  0  0  0  0  0  0  0  0  0  0
    8.0643   -5.8391    0.0000 C    0  0  0  0  0  0  0  0  0  0  0  0
   12.0029  -10.6113    0.0000 N    0  0  0  0  0  0  0  0  0  0  0  0
   13.2447  -10.1590    0.0000 N    0  0  0  0  0  0  0  0  0  0  0  0
   12.0385  -11.9422    0.0000 C    0  0  0  0  0  0  0  0  0  0  0  0
   14.0518  -11.2147    0.0000 C    0  0  0  0  0  0  0  0  0  0  0  0
   13.2978  -12.3148    0.0000 C    0  0  0  0  0  0  0  0  0  0  0  0
   11.2667   -9.9551    0.0000 H    0  0  0  0  0  0  0  0  0  0  0  0
    9.4127   -3.8873    0.0000 C    0  0  0  0  0  0  0  0  0  0  0  0
    7.3900   -8.1098    0.0000 C    0  0  0  0  0  0  0  0  0  0  0  0
   15.9327   -4.5351    0.0000 C    0  0  0  0  0  0  0  0  0  0  0  0
   17.5028   -8.9347    0.0000 C    0  0  0  0  0  0  0  0  0  0  0  0
   15.3826  -11.1882    0.0000 C    0  0  0  0  0  0  0  0  0  0  0  0
   10.9828  -12.7496    0.0000 C    0  0  0  0  0  0  0  0  0  0  0  0
   12.4111   -7.5510    0.0000 Rh   0  0  0  0  0  0  0  0  0  0  0  0
   14.6818   -5.7592    0.0000 H    0  0  0  0  0  0  0  0  0  0  0  0
   13.1738   -6.4779    0.0000 P    0  0  0  0  0  0  0  0  0  0  0  0
   14.2648   -7.2496    0.0000 O    0  0  0  0  0  0  0  0  0  0  0  0
   12.2515   -5.5287    0.0000 O    0  0  0  0  0  0  0  0  0  0  0  0
   14.8592   -4.1091    0.0000 O    0  0  0  0  0  0  0  0  0  0  0  0
   14.1317   -8.5620    0.0000 C    0  0  0  0  0  0  0  0  0  0  0  0
   10.9650   -5.8657    0.0000 C    0  0  0  0  0  0  0  0  0  0  0  0
   14.5222   -2.8229    0.0000 C    0  0  0  0  0  0  0  0  0  0  0  0
  1  2  1  0  0  0  0
  1  3  2  0  0  0  0
  2  4  2  0  0  0  0
  3  5  1  0  0  0  0
  4  6  1  0  0  0  0
  5  6  2  0  0  0  0
  8  9  1  0  0  0  0
  8 10  1  0  0  0  0
  9 11  2  0  0  0  0
 10 12  2  0  0  0  0
 11 12  1  0  0  0  0
  7  8  1  0  0  0  0
 13 14  1  0  0  0  0
 13 15  1  0  0  0  0
 14 16  2  0  0  0  0
 15 17  2  0  0  0  0
 16 17  1  0  0  0  0
  7 13  1  0  0  0  0
 18 19  1  0  0  0  0
 18 20  1  0  0  0  0
 19 21  2  0  0  0  0
 20 22  2  0  0  0  0
 21 22  1  0  0  0  0
  7 18  1  0  0  0  0
  7 23  1  0  0  0  0
 16 24  1  0  0  0  0
 15 25  1  0  0  0  0
 12 26  1  0  0  0  0
  9 27  1  0  0  0  0
 21 28  1  0  0  0  0
 20 29  1  0  0  0  0
 19 30  1  0  0  0  0
 10 30  1  0  0  0  0
 14 30  1  0  0  0  0
  5 30  1  0  0  0  0
 30 31  1  0  0  0  0
 30 32  1  0  0  0  0
 32 33  1  0  0  0  0
 32 34  1  0  0  0  0
 32 35  1  0  0  0  0
 33 36  1  0  0  0  0
 34 37  1  0  0  0  0
 35 38  1  0  0  0  0
M  END
> <NMREDATA_VERSION>
1.1

> <NMREDATA_LEVEL>
0

> <NMREDATA_SOLVENT>
C6D6

> <NMREDATA_TEMPERATURE>
295

> <NMREDATA_FORMULA>
C24H41BN6O3PRh

> <NMREDATA_SMILES>
COP([RhH]12(c3ccccc3)N3=C(C)C=C(N3[BH](N3N1=C(C)C=C3C)N1N2=C(C)C=C1C)C)(OC)OC

> <NMREDATA_ASSIGNMENT>
Rh30, 1270.00, 30

> <NMREDATA_1D_103Rh>
1270.00, L=Rh30

$$$$
