
  ACD/LABS04032410262D

 45 42  0  0  0  0  0  0  0  0  2 V2000
   22.7302  -15.9280    0.0000 N    0  3  0  0  0  0  0  0  0  0  0  0
   23.5906  -15.4312    0.0000 C    0  0  0  0  0  0  0  0  0  0  0  0
   23.5906  -14.4377    0.0000 C    0  0  0  0  0  0  0  0  0  0  0  0
   24.4510  -13.9410    0.0000 C    0  0  0  0  0  0  0  0  0  0  0  0
   24.4510  -12.9475    0.0000 C    0  0  0  0  0  0  0  0  0  0  0  0
   23.2269  -16.7883    0.0000 C    0  0  0  0  0  0  0  0  0  0  0  0
   22.7302  -17.6487    0.0000 C    0  0  0  0  0  0  0  0  0  0  0  0
   23.2269  -18.5091    0.0000 C    0  0  0  0  0  0  0  0  0  0  0  0
   22.7302  -19.3695    0.0000 C    0  0  0  0  0  0  0  0  0  0  0  0
   22.2334  -15.0676    0.0000 C    0  0  0  0  0  0  0  0  0  0  0  0
   22.7302  -14.2072    0.0000 C    0  0  0  0  0  0  0  0  0  0  0  0
   22.2334  -13.3468    0.0000 C    0  0  0  0  0  0  0  0  0  0  0  0
   22.7302  -12.4864    0.0000 C    0  0  0  0  0  0  0  0  0  0  0  0
   21.8698  -16.4247    0.0000 C    0  0  0  0  0  0  0  0  0  0  0  0
   21.8698  -17.4182    0.0000 C    0  0  0  0  0  0  0  0  0  0  0  0
   21.0094  -17.9149    0.0000 C    0  0  0  0  0  0  0  0  0  0  0  0
   21.0094  -18.9084    0.0000 C    0  0  0  0  0  0  0  0  0  0  0  0
   24.2365  -21.3281    0.0000 N    0  3  0  0  0  0  0  0  0  0  0  0
   25.0968  -20.8313    0.0000 C    0  0  0  0  0  0  0  0  0  0  0  0
   25.0968  -19.8378    0.0000 C    0  0  0  0  0  0  0  0  0  0  0  0
   25.9572  -19.3411    0.0000 C    0  0  0  0  0  0  0  0  0  0  0  0
   25.9572  -18.3476    0.0000 C    0  0  0  0  0  0  0  0  0  0  0  0
   24.7332  -22.1885    0.0000 C    0  0  0  0  0  0  0  0  0  0  0  0
   24.2365  -23.0489    0.0000 C    0  0  0  0  0  0  0  0  0  0  0  0
   24.7332  -23.9093    0.0000 C    0  0  0  0  0  0  0  0  0  0  0  0
   24.2365  -24.7696    0.0000 C    0  0  0  0  0  0  0  0  0  0  0  0
   23.7397  -20.4677    0.0000 C    0  0  0  0  0  0  0  0  0  0  0  0
   24.2365  -19.6073    0.0000 C    0  0  0  0  0  0  0  0  0  0  0  0
   23.7397  -18.7469    0.0000 C    0  0  0  0  0  0  0  0  0  0  0  0
   24.2365  -17.8865    0.0000 C    0  0  0  0  0  0  0  0  0  0  0  0
   23.3761  -21.8248    0.0000 C    0  0  0  0  0  0  0  0  0  0  0  0
   23.3761  -22.8183    0.0000 C    0  0  0  0  0  0  0  0  0  0  0  0
   22.5157  -23.3151    0.0000 C    0  0  0  0  0  0  0  0  0  0  0  0
   22.5157  -24.3086    0.0000 C    0  0  0  0  0  0  0  0  0  0  0  0
   11.5849  -15.4219    0.0000 Rh   0  6  0  0  0  0  0  0  0  0  0  0
   10.3637  -14.7168    0.0000 Cl   0  0  0  0  0  0  0  0  0  0  0  0
   11.3747  -14.0275    0.0000 Cl   0  0  0  0  0  0  0  0  0  0  0  0
   12.5440  -14.3882    0.0000 Cl   0  0  0  0  0  0  0  0  0  0  0  0
   12.9910  -15.5273    0.0000 Cl   0  0  0  0  0  0  0  0  0  0  0  0
   10.2722  -15.9371    0.0000 S    0  0  0  0  0  0  0  0  0  0  0  0
   12.3073  -16.5051    0.0000 S    0  0  0  0  0  0  0  0  0  0  0  0
    9.1697  -15.0579    0.0000 C    0  0  0  0  0  0  0  0  0  0  0  0
    9.7703  -17.3916    0.0000 C    0  0  0  0  0  0  0  0  0  0  0  0
   12.5864  -17.6615    0.0000 C    0  0  0  0  0  0  0  0  0  0  0  0
   13.3923  -17.0021    0.0000 C    0  0  0  0  0  0  0  0  0  0  0  0
  1  2  1  0  0  0  0
  2  3  1  0  0  0  0
  3  4  1  0  0  0  0
  4  5  1  0  0  0  0
  1  6  1  0  0  0  0
  6  7  1  0  0  0  0
  7  8  1  0  0  0  0
  8  9  1  0  0  0  0
  1 10  1  0  0  0  0
 10 11  1  0  0  0  0
 11 12  1  0  0  0  0
 12 13  1  0  0  0  0
  1 14  1  0  0  0  0
 14 15  1  0  0  0  0
 15 16  1  0  0  0  0
 16 17  1  0  0  0  0
 18 19  1  0  0  0  0
 19 20  1  0  0  0  0
 20 21  1  0  0  0  0
 21 22  1  0  0  0  0
 18 23  1  0  0  0  0
 23 24  1  0  0  0  0
 24 25  1  0  0  0  0
 25 26  1  0  0  0  0
 18 27  1  0  0  0  0
 27 28  1  0  0  0  0
 28 29  1  0  0  0  0
 29 30  1  0  0  0  0
 18 31  1  0  0  0  0
 31 32  1  0  0  0  0
 32 33  1  0  0  0  0
 33 34  1  0  0  0  0
 35 36  1  0  0  0  0
 35 37  1  0  0  0  0
 35 38  1  0  0  0  0
 35 39  1  0  0  0  0
 35 40  1  0  0  0  0
 35 41  1  0  0  0  0
 40 42  1  0  0  0  0
 40 43  1  0  0  0  0
 41 44  1  0  0  0  0
 41 45  1  0  0  0  0
M  END
> <NMREDATA_VERSION>
1.1

> <NMREDATA_LEVEL>
0

> <NMREDATA_SOLVENT>
CD2Cl2

> <NMREDATA_FORMULA>
C36H88Cl4N2RhS2

> <NMREDATA_SMILES>
CS([Rh](S(C)C)(Cl)(Cl)(Cl)Cl)C.CCCCN(CCCC)(CCCC)CCCC.CCCCN(CCCC)(CCCC)CCCC

> <NMREDATA_ASSIGNMENT>
Rh35, 4882.00, 35

> <NMREDATA_1D_103Rh>
4882.00, L=Rh35

$$$$
