
  ACD/LABS04032410392D

 13 12  0  0  0  0  0  0  0  0  1 V2000
   13.2840  -17.7066    0.0000 Rh   0  0  0  0  0  0  0  0  0  0  0  0
   13.5884  -16.1683    0.0000 Cl   0  0  0  0  0  0  0  0  0  0  0  0
   15.1268  -17.5143    0.0000 Cl   0  0  0  0  0  0  0  0  0  0  0  0
   12.0021  -18.5880    0.0000 Cl   0  0  0  0  0  0  0  0  0  0  0  0
   11.3931  -17.4342    0.0000 Te   0  0  0  0  0  0  0  0  0  0  0  0
   12.0822  -16.3606    0.0000 Te   0  0  0  0  0  0  0  0  0  0  0  0
   13.9890  -18.8123    0.0000 Te   0  0  0  0  0  0  0  0  0  0  0  0
   12.2584  -14.9665    0.0000 C    0  0  0  0  0  0  0  0  0  0  0  0
   11.2169  -15.6235    0.0000 C    0  0  0  0  0  0  0  0  0  0  0  0
   10.4157  -16.7612    0.0000 C    0  0  0  0  0  0  0  0  0  0  0  0
   10.1913  -17.6906    0.0000 C    0  0  0  0  0  0  0  0  0  0  0  0
   13.8608  -19.6295    0.0000 C    0  0  0  0  0  0  0  0  0  0  0  0
   15.7677  -19.3251    0.0000 C    0  0  0  0  0  0  0  0  0  0  0  0
  1  2  1  0  0  0  0
  1  3  1  0  0  0  0
  1  4  1  0  0  0  0
  1  5  1  0  0  0  0
  1  6  1  0  0  0  0
  1  7  1  0  0  0  0
  6  8  1  0  0  0  0
  6  9  1  0  0  0  0
  5 10  1  0  0  0  0
  5 11  1  0  0  0  0
  7 12  1  0  0  0  0
  7 13  1  0  0  0  0
M  END
> <NMREDATA_VERSION>
1.1

> <NMREDATA_LEVEL>
0

> <NMREDATA_SOLVENT>
CD2Cl2

> <NMREDATA_FORMULA>
C6H21Cl3RhTe3

> <NMREDATA_SMILES>
C[TeH]([Rh]([TeH](C)C)([TeH](C)C)(Cl)(Cl)Cl)C

> <NMREDATA_ASSIGNMENT>
Rh1, 3179.00, 1

> <NMREDATA_1D_103Rh>
3179.00, L=Rh1

$$$$
