
  ACD/LABS03282419122D

 49 55  0  0  0  0  0  0  0  0  1 V2000
   18.3630   -9.9239    0.0000 N    0  0  0  0  0  0  0  0  0  0  0  0
   17.9547   -8.6550    0.0000 C    0  0  0  0  0  0  0  0  0  0  0  0
   19.6589  -10.2082    0.0000 C    0  0  0  0  0  0  0  0  0  0  0  0
   18.8512   -7.6697    0.0000 C    0  0  0  0  0  0  0  0  0  0  0  0
   20.5554   -9.2229    0.0000 C    0  0  0  0  0  0  0  0  0  0  0  0
   20.1560   -7.9536    0.0000 C    0  0  0  0  0  0  0  0  0  0  0  0
   12.7361  -12.5599    0.0000 C    0  0  0  0  0  0  0  0  0  0  0  0
   12.2301  -11.3261    0.0000 C    0  0  0  0  0  0  0  0  0  0  0  0
   11.9195  -13.6070    0.0000 C    0  0  0  0  0  0  0  0  0  0  0  0
   10.9079  -11.1484    0.0000 C    0  0  0  0  0  0  0  0  0  0  0  0
   10.5969  -13.4297    0.0000 C    0  0  0  0  0  0  0  0  0  0  0  0
   10.1002  -12.1960    0.0000 C    0  0  0  0  0  0  0  0  0  0  0  0
   17.4664  -10.9000    0.0000 Rh   0  0  0  0  0  0  0  0  0  0  0  0
   17.2358   -9.5956    0.0000 C    0  0  0  0  0  0  0  0  0  0  0  0
   17.0052   -8.2908    0.0000 N    0  0  0  0  0  0  0  0  0  0  0  0
   17.0937  -12.1782    0.0000 P    0  0  0  0  0  0  0  0  0  0  0  0
   13.0467  -10.2700    0.0000 P    0  0  0  0  0  0  0  0  0  0  0  0
   13.8104  -10.7668    0.0000 C    0  0  0  0  0  0  0  0  0  0  0  0
   14.7239  -11.7255    0.0000 C    0  0  0  0  0  0  0  0  0  0  0  0
   14.1742   -9.4979    0.0000 C    0  0  0  0  0  0  0  0  0  0  0  0
   16.0198  -11.3972    0.0000 C    0  0  0  0  0  0  0  0  0  0  0  0
   15.4516   -9.1695    0.0000 C    0  0  0  0  0  0  0  0  0  0  0  0
   16.3837  -10.1283    0.0000 C    0  0  0  0  0  0  0  0  0  0  0  0
   20.5910  -12.6043    0.0000 C    0  0  0  0  0  0  0  0  0  0  0  0
   19.3928  -12.0272    0.0000 C    0  0  0  0  0  0  0  0  0  0  0  0
   20.6794  -13.9354    0.0000 C    0  0  0  0  0  0  0  0  0  0  0  0
   18.2919  -12.7638    0.0000 C    0  0  0  0  0  0  0  0  0  0  0  0
   19.5789  -14.6813    0.0000 C    0  0  0  0  0  0  0  0  0  0  0  0
   18.3807  -14.0953    0.0000 C    0  0  0  0  0  0  0  0  0  0  0  0
   16.6676  -15.6751    0.0000 C    0  0  0  0  0  0  0  0  0  0  0  0
   17.2536  -14.4769    0.0000 C    0  0  0  0  0  0  0  0  0  0  0  0
   15.3365  -15.7640    0.0000 C    0  0  0  0  0  0  0  0  0  0  0  0
   16.5081  -13.3764    0.0000 C    0  0  0  0  0  0  0  0  0  0  0  0
   14.5999  -14.6635    0.0000 C    0  0  0  0  0  0  0  0  0  0  0  0
   15.1855  -13.4653    0.0000 C    0  0  0  0  0  0  0  0  0  0  0  0
    8.0321   -9.8621    0.0000 C    0  0  0  0  0  0  0  0  0  0  0  0
    9.3014  -10.2700    0.0000 C    0  0  0  0  0  0  0  0  0  0  0  0
    7.7571   -8.5662    0.0000 C    0  0  0  0  0  0  0  0  0  0  0  0
   10.2864   -9.3828    0.0000 C    0  0  0  0  0  0  0  0  0  0  0  0
    8.7421   -7.6697    0.0000 C    0  0  0  0  0  0  0  0  0  0  0  0
   10.0114   -8.0868    0.0000 C    0  0  0  0  0  0  0  0  0  0  0  0
   12.4078   -6.5869    0.0000 C    0  0  0  0  0  0  0  0  0  0  0  0
   13.4550   -7.4124    0.0000 C    0  0  0  0  0  0  0  0  0  0  0  0
   12.5944   -5.2732    0.0000 C    0  0  0  0  0  0  0  0  0  0  0  0
   14.6795   -6.9153    0.0000 C    0  0  0  0  0  0  0  0  0  0  0  0
   13.8277   -4.7761    0.0000 C    0  0  0  0  0  0  0  0  0  0  0  0
   14.8660   -5.5927    0.0000 C    0  0  0  0  0  0  0  0  0  0  0  0
   18.5673  -11.6455    0.0000 O    0  0  0  0  0  0  0  0  0  0  0  0
   19.7655  -11.0688    0.0000 O    0  0  0  0  0  0  0  0  0  0  0  0
  1  2  1  0  0  0  0
  1  3  2  0  0  0  0
  2  4  2  0  0  0  0
  3  5  1  0  0  0  0
  4  6  1  0  0  0  0
  5  6  2  0  0  0  0
  7  8  1  0  0  0  0
  7  9  2  0  0  0  0
  8 10  2  0  0  0  0
  9 11  1  0  0  0  0
 10 12  1  0  0  0  0
 11 12  2  0  0  0  0
 14 15  3  0  0  0  0
 13 14  1  0  0  0  0
 13 16  1  0  0  0  0
 13 17  1  0  0  0  0
 18 19  1  0  0  0  0
 18 20  2  0  0  0  0
 19 21  2  0  0  0  0
 20 22  1  0  0  0  0
 21 23  1  0  0  0  0
 22 23  2  0  0  0  0
 16 21  1  0  0  0  0
 24 25  1  0  0  0  0
 24 26  2  0  0  0  0
 25 27  2  0  0  0  0
 26 28  1  0  0  0  0
 27 29  1  0  0  0  0
 28 29  2  0  0  0  0
 16 27  1  0  0  0  0
 30 31  1  0  0  0  0
 30 32  2  0  0  0  0
 31 33  2  0  0  0  0
 32 34  1  0  0  0  0
 33 35  1  0  0  0  0
 34 35  2  0  0  0  0
 16 33  1  0  0  0  0
 36 37  1  0  0  0  0
 36 38  2  0  0  0  0
 37 39  2  0  0  0  0
 38 40  1  0  0  0  0
 39 41  1  0  0  0  0
 40 41  2  0  0  0  0
 17 39  1  0  0  0  0
 42 43  1  0  0  0  0
 42 44  2  0  0  0  0
 43 45  2  0  0  0  0
 44 46  1  0  0  0  0
 45 47  1  0  0  0  0
 46 47  2  0  0  0  0
 17 43  1  0  0  0  0
  8 17  1  0  0  0  0
 13 48  1  0  0  0  0
 48 49  2  0  0  0  0
  1 13  1  0  0  0  0
M  END
> <NMREDATA_VERSION>
1.1

> <NMREDATA_LEVEL>
0

> <NMREDATA_SOLVENT>
DCCl3

> <NMREDATA_TEMPERATURE>
300

> <NMREDATA_FORMULA>
C42H38N2O2P2Rh

> <NMREDATA_SMILES>
O=[O][Rh](P(c1ccccc1)(c1ccccc1)c1ccccc1)(P(c1ccccc1)(c1ccccc1)c1ccccc1)(N1=CC=CC=C1)C#N

> <NMREDATA_ASSIGNMENT>
Rh13, 2003.00, 13

> <NMREDATA_1D_103Rh>
2003.00, L=Rh13

$$$$
