
  ACD/LABS03132411062D

 65 71  0  0  0  0  0  0  0  0  2 V2000
   11.5879   -8.9302    0.0000 Rh   0  3  0  0  0  0  0  0  0  0  0  0
   12.3650   -7.5841    0.0000 P    0  0  0  0  0  0  0  0  0  0  0  0
   12.3650  -10.2763    0.0000 P    0  0  0  0  0  0  0  0  0  0  0  0
   13.1422  -11.6224    0.0000 C    0  0  0  0  0  0  0  0  0  0  0  0
   14.6965  -11.6224    0.0000 C    0  0  0  0  0  0  0  0  0  0  0  0
   12.3650  -12.9685    0.0000 C    0  0  0  0  0  0  0  0  0  0  0  0
   15.4737  -12.9685    0.0000 C    0  0  0  0  0  0  0  0  0  0  0  0
   13.1422  -14.3146    0.0000 C    0  0  0  0  0  0  0  0  0  0  0  0
   14.6965  -14.3146    0.0000 C    0  0  0  0  0  0  0  0  0  0  0  0
   13.7111   -9.4991    0.0000 C    0  0  0  0  0  0  0  0  0  0  0  0
   13.7111   -7.9448    0.0000 C    0  0  0  0  0  0  0  0  0  0  0  0
   15.0572  -10.2763    0.0000 C    0  0  0  0  0  0  0  0  0  0  0  0
   15.0572   -7.1676    0.0000 C    0  0  0  0  0  0  0  0  0  0  0  0
   16.4033   -9.4991    0.0000 C    0  0  0  0  0  0  0  0  0  0  0  0
   16.4033   -7.9448    0.0000 C    0  0  0  0  0  0  0  0  0  0  0  0
   13.7111   -8.3613    0.0000 C    0  0  0  0  0  0  0  0  0  0  0  0
   15.0572   -7.5841    0.0000 C    0  0  0  0  0  0  0  0  0  0  0  0
   13.7111   -9.9156    0.0000 C    0  0  0  0  0  0  0  0  0  0  0  0
   16.4033   -8.3613    0.0000 C    0  0  0  0  0  0  0  0  0  0  0  0
   15.0572  -10.6928    0.0000 C    0  0  0  0  0  0  0  0  0  0  0  0
   16.4033   -9.9156    0.0000 C    0  0  0  0  0  0  0  0  0  0  0  0
   11.0189   -6.8069    0.0000 C    0  0  0  0  0  0  0  0  0  0  0  0
    9.6728   -7.5841    0.0000 C    0  0  0  0  0  0  0  0  0  0  0  0
   11.0189   -5.2526    0.0000 C    0  0  0  0  0  0  0  0  0  0  0  0
    8.3267   -6.8069    0.0000 C    0  0  0  0  0  0  0  0  0  0  0  0
    9.6728   -4.4754    0.0000 C    0  0  0  0  0  0  0  0  0  0  0  0
    8.3267   -5.2526    0.0000 C    0  0  0  0  0  0  0  0  0  0  0  0
   13.1422   -6.2380    0.0000 C    0  0  0  0  0  0  0  0  0  0  0  0
   14.6965   -6.2380    0.0000 C    0  0  0  0  0  0  0  0  0  0  0  0
   15.4737   -4.8919    0.0000 P    0  0  0  0  0  0  0  0  0  0  0  0
   17.0280   -4.8919    0.0000 C    0  0  0  0  0  0  0  0  0  0  0  0
   17.8052   -3.5458    0.0000 C    0  0  0  0  0  0  0  0  0  0  0  0
   17.8052   -6.2380    0.0000 C    0  0  0  0  0  0  0  0  0  0  0  0
   19.3596   -3.5458    0.0000 C    0  0  0  0  0  0  0  0  0  0  0  0
   19.3596   -6.2380    0.0000 C    0  0  0  0  0  0  0  0  0  0  0  0
   20.1367   -4.8919    0.0000 C    0  0  0  0  0  0  0  0  0  0  0  0
   14.6965   -3.5458    0.0000 C    0  0  0  0  0  0  0  0  0  0  0  0
   13.1422   -3.5458    0.0000 C    0  0  0  0  0  0  0  0  0  0  0  0
   15.4737   -2.1997    0.0000 C    0  0  0  0  0  0  0  0  0  0  0  0
   12.3650   -2.1997    0.0000 C    0  0  0  0  0  0  0  0  0  0  0  0
   14.6965   -0.8536    0.0000 C    0  0  0  0  0  0  0  0  0  0  0  0
   13.1422   -0.8536    0.0000 C    0  0  0  0  0  0  0  0  0  0  0  0
   11.0189  -11.0535    0.0000 C    0  0  0  0  0  0  0  0  0  0  0  0
   11.0189  -12.6078    0.0000 C    0  0  0  0  0  0  0  0  0  0  0  0
    9.6728  -13.3850    0.0000 P    0  0  0  0  0  0  0  0  0  0  0  0
    8.3267  -12.6078    0.0000 C    0  0  0  0  0  0  0  0  0  0  0  0
    6.9807  -13.3850    0.0000 C    0  0  0  0  0  0  0  0  0  0  0  0
    8.3267  -11.0535    0.0000 C    0  0  0  0  0  0  0  0  0  0  0  0
    5.6346  -12.6078    0.0000 C    0  0  0  0  0  0  0  0  0  0  0  0
    6.9807  -10.2763    0.0000 C    0  0  0  0  0  0  0  0  0  0  0  0
    5.6346  -11.0535    0.0000 C    0  0  0  0  0  0  0  0  0  0  0  0
    9.6728  -14.9393    0.0000 C    0  0  0  0  0  0  0  0  0  0  0  0
   11.0189  -15.7165    0.0000 C    0  0  0  0  0  0  0  0  0  0  0  0
    8.3267  -15.7165    0.0000 C    0  0  0  0  0  0  0  0  0  0  0  0
   11.0189  -17.2708    0.0000 C    0  0  0  0  0  0  0  0  0  0  0  0
    8.3267  -17.2708    0.0000 C    0  0  0  0  0  0  0  0  0  0  0  0
    9.6728  -18.0480    0.0000 C    0  0  0  0  0  0  0  0  0  0  0  0
   22.8183  -10.3681    0.0000 S    0  0  0  0  0  0  0  0  0  0  0  0
   23.5394   -9.1191    0.0000 O    0  0  0  0  0  0  0  0  0  0  0  0
   21.5694   -9.6470    0.0000 O    0  0  0  0  0  0  0  0  0  0  0  0
   22.0972  -11.6170    0.0000 C    0  0  0  0  0  0  0  0  0  0  0  0
   24.0673  -11.0891    0.0000 O    0  5  0  0  0  0  0  0  0  0  0  0
   20.8483  -10.8959    0.0000 F    0  0  0  0  0  0  0  0  0  0  0  0
   23.3462  -12.3381    0.0000 F    0  0  0  0  0  0  0  0  0  0  0  0
   21.3762  -12.8660    0.0000 F    0  0  0  0  0  0  0  0  0  0  0  0
  1  2  1  0  0  0  0
  1  3  1  0  0  0  0
  4  5  1  0  0  0  0
  4  6  2  0  0  0  0
  5  7  2  0  0  0  0
  6  8  1  0  0  0  0
  7  9  1  0  0  0  0
  8  9  2  0  0  0  0
  3  4  1  0  0  0  0
 10 11  1  0  0  0  0
 10 12  2  0  0  0  0
 11 13  2  0  0  0  0
 12 14  1  0  0  0  0
 13 15  1  0  0  0  0
 14 15  2  0  0  0  0
  3 10  1  0  0  0  0
 16 17  1  0  0  0  0
 16 18  2  0  0  0  0
 17 19  2  0  0  0  0
 18 20  1  0  0  0  0
 19 21  1  0  0  0  0
 20 21  2  0  0  0  0
  2 16  1  0  0  0  0
 22 23  1  0  0  0  0
 22 24  2  0  0  0  0
 23 25  2  0  0  0  0
 24 26  1  0  0  0  0
 25 27  1  0  0  0  0
 26 27  2  0  0  0  0
  2 22  1  0  0  0  0
  2 28  1  0  0  0  0
 28 29  1  0  0  0  0
 31 32  1  0  0  0  0
 31 33  2  0  0  0  0
 32 34  2  0  0  0  0
 33 35  1  0  0  0  0
 34 36  1  0  0  0  0
 35 36  2  0  0  0  0
 30 31  1  0  0  0  0
 37 38  1  0  0  0  0
 37 39  2  0  0  0  0
 38 40  2  0  0  0  0
 39 41  1  0  0  0  0
 40 42  1  0  0  0  0
 41 42  2  0  0  0  0
 30 37  1  0  0  0  0
 29 30  1  0  0  0  0
  3 43  1  0  0  0  0
 43 44  1  0  0  0  0
 46 47  1  0  0  0  0
 46 48  2  0  0  0  0
 47 49  2  0  0  0  0
 48 50  1  0  0  0  0
 49 51  1  0  0  0  0
 50 51  2  0  0  0  0
 45 46  1  0  0  0  0
 52 53  1  0  0  0  0
 52 54  2  0  0  0  0
 53 55  2  0  0  0  0
 54 56  1  0  0  0  0
 55 57  1  0  0  0  0
 56 57  2  0  0  0  0
 45 52  1  0  0  0  0
 44 45  1  0  0  0  0
 58 59  2  0  0  0  0
 58 60  2  0  0  0  0
 58 61  1  0  0  0  0
 58 62  1  0  0  0  0
 61 63  1  0  0  0  0
 61 64  1  0  0  0  0
 61 65  1  0  0  0  0
M  END
> <NMREDATA_VERSION>
1.1

> <NMREDATA_LEVEL>
0

> <NMREDATA_SOLVENT>
CD2Cl2

> <NMREDATA_TEMPERATURE>
298

> <NMREDATA_FORMULA>
C53H51F3O3P4RhS

> <NMREDATA_SMILES>
c1ccc(cc1)P(c1ccccc1)([Rh]P(c1ccccc1)(c1ccccc1)CCP(c1ccccc1)c1ccccc1)CCP(c1ccccc1)c1ccccc1.FC(S(=O)(=O)O)(F)F

> <NMREDATA_ASSIGNMENT>
Rh1, -1172.00, 1

> <NMREDATA_1D_103Rh>
-1172.00, L=Rh1

$$$$
