
  ACD/LABS02122415392D

 35 37  0  0  0  0  0  0  0  0  2 V2000
   13.0348   -4.6474    0.0000 C    0  0  0  0  0  0  0  0  0  0  0  0
   20.4427  -10.5804    0.0000 C    0  0  0  0  0  0  0  0  0  0  0  0
   17.5744  -10.5804    0.0000 C    0  0  0  0  0  0  0  0  0  0  0  0
   21.8768   -8.0964    0.0000 C    0  0  0  0  0  0  0  0  0  0  0  0
   16.1402   -8.0964    0.0000 C    0  0  0  0  0  0  0  0  0  0  0  0
   20.4427   -5.6123    0.0000 C    0  0  0  0  0  0  0  0  0  0  0  0
   17.5744   -5.6123    0.0000 C    0  0  0  0  0  0  0  0  0  0  0  0
   13.3346   -7.5000    0.0000 N    0  3  0  0  0  0  0  0  0  0  0  0
   11.2030   -9.4193    0.0000 C    0  0  0  0  0  0  0  0  0  0  0  0
   15.6551   -3.4808    0.0000 N    0  0  0  0  0  0  0  0  0  0  0  0
   16.2514   -0.6751    0.0000 C    0  0  0  0  0  0  0  0  0  0  0  0
   30.7189  -21.4815    0.0000 C    0  0  0  0  0  0  0  0  0  0  0  0
   23.3110  -15.5485    0.0000 C    0  0  0  0  0  0  0  0  0  0  0  0
   26.1793  -15.5485    0.0000 C    0  0  0  0  0  0  0  0  0  0  0  0
   21.8768  -18.0325    0.0000 C    0  0  0  0  0  0  0  0  0  0  0  0
   27.6135  -18.0325    0.0000 C    0  0  0  0  0  0  0  0  0  0  0  0
   23.3110  -20.5165    0.0000 C    0  0  0  0  0  0  0  0  0  0  0  0
   26.1793  -20.5165    0.0000 C    0  0  0  0  0  0  0  0  0  0  0  0
   30.4191  -18.6289    0.0000 N    0  3  0  0  0  0  0  0  0  0  0  0
   32.5507  -16.7096    0.0000 C    0  0  0  0  0  0  0  0  0  0  0  0
   28.0986  -22.6481    0.0000 N    0  0  0  0  0  0  0  0  0  0  0  0
   27.5022  -25.4537    0.0000 C    0  0  0  0  0  0  0  0  0  0  0  0
   13.4598  -21.9065    0.0000 C    0  0  0  0  0  0  0  0  0  0  0  0
   21.8768  -13.0644    0.0000 Rh   0  6  0  0  0  0  0  0  0  0  0  0
   24.3609  -11.6303    0.0000 Cl   0  5  0  0  0  0  0  0  0  0  0  0
   19.3928  -14.4986    0.0000 C    0  0  0  0  0  0  0  0  0  0  0  0
   19.3928  -17.3669    0.0000 C    0  0  0  0  0  0  0  0  0  0  0  0
   16.9088  -13.0644    0.0000 C    0  0  0  0  0  0  0  0  0  0  0  0
   16.9088  -18.8011    0.0000 C    0  0  0  0  0  0  0  0  0  0  0  0
   14.4247  -14.4986    0.0000 C    0  0  0  0  0  0  0  0  0  0  0  0
   14.4247  -17.3669    0.0000 C    0  0  0  0  0  0  0  0  0  0  0  0
   16.3124  -21.6067    0.0000 N    0  0  0  0  0  0  0  0  0  0  0  0
   18.2317  -23.7383    0.0000 C    0  0  0  0  0  0  0  0  0  0  0  0
   12.2932  -19.2862    0.0000 N    0  3  0  0  0  0  0  0  0  0  0  0
    9.4875  -18.6898    0.0000 C    0  0  0  0  0  0  0  0  0  0  0  0
  2  3  1  0  0  0  0
  2  4  2  0  0  0  0
  3  5  2  0  0  0  0
  4  6  1  0  0  0  0
  5  7  1  0  0  0  0
  6  7  2  0  0  0  0
  5  8  1  0  0  0  0
  8  9  1  0  0  0  0
 10 11  1  0  0  0  0
  1 10  2  0  0  0  0
  1  8  2  0  0  0  0
 13 14  1  0  0  0  0
 13 15  2  0  0  0  0
 14 16  2  0  0  0  0
 15 17  1  0  0  0  0
 16 18  1  0  0  0  0
 17 18  2  0  0  0  0
 16 19  1  0  0  0  0
 19 20  1  0  0  0  0
 21 22  1  0  0  0  0
 12 21  2  0  0  0  0
 12 19  2  0  0  0  0
 24 25  1  0  0  0  0
 26 27  1  0  0  0  0
 26 28  2  0  0  0  0
 27 29  2  0  0  0  0
 28 30  1  0  0  0  0
 29 31  1  0  0  0  0
 30 31  2  0  0  0  0
 24 26  1  0  0  0  0
 32 33  1  0  0  0  0
 31 34  1  0  0  0  0
 34 35  1  0  0  0  0
 23 34  2  0  0  0  0
 23 32  2  0  0  0  0
 13 24  1  0  0  0  0
  2 24  1  0  0  0  0
M  END
> <NMREDATA_VERSION>
1.1

> <NMREDATA_LEVEL>
0

> <NMREDATA_SOLVENT>
DCCl3

> <NMREDATA_TEMPERATURE>
298

> <NMREDATA_FORMULA>
C27H33ClN6Rh

> <NMREDATA_SMILES>
CN=C=N(c1ccc(cc1)[Rh](c1cccc(c1)N(=C=NC)C)(c1cccc(c1)N(=C=NC)C)Cl)C

> <NMREDATA_ASSIGNMENT>
Rh24, 2874.00, 24

> <NMREDATA_1D_103Rh>
2874.00, L=Rh24

$$$$
