
  ACD/LABS02122411352D

 24 24  0  0  0  0  0  0  0  0  1 V2000
   18.7980   -8.3940    0.0000 C    0  0  0  0  0  0  0  0  0  0  0  0
   17.4785   -8.5725    0.0000 C    0  0  0  0  0  0  0  0  0  0  0  0
   19.8514   -9.2083    0.0000 C    0  0  0  0  0  0  0  0  0  0  0  0
   20.0255  -10.5201    0.0000 C    0  0  0  0  0  0  0  0  0  0  0  0
   16.6719   -9.6215    0.0000 C    0  0  0  0  0  0  0  0  0  0  0  0
   19.2110  -11.5732    0.0000 C    0  0  0  0  0  0  0  0  0  0  0  0
   16.8507  -10.9408    0.0000 C    0  0  0  0  0  0  0  0  0  0  0  0
   17.8994  -11.7476    0.0000 C    0  0  0  0  0  0  0  0  0  0  0  0
   16.8140   -7.4214    0.0000 Rh   0  0  0  0  0  0  0  0  0  0  0  0
   17.4838   -6.2775    0.0000 C    0  0  0  0  0  0  0  0  0  0  0  0
   15.4960   -7.4251    0.0000 P    0  0  0  0  0  0  0  0  0  0  0  0
   15.4954   -8.7349    0.0000 C    0  0  0  0  0  0  0  0  0  0  0  0
   14.3441   -9.3997    0.0000 C    0  0  0  0  0  0  0  0  0  0  0  0
   14.3445  -10.7297    0.0000 C    0  0  0  0  0  0  0  0  0  0  0  0
   13.1932  -11.3944    0.0000 C    0  0  0  0  0  0  0  0  0  0  0  0
   15.4955   -6.0951    0.0000 C    0  0  0  0  0  0  0  0  0  0  0  0
   14.3440   -5.4297    0.0000 C    0  0  0  0  0  0  0  0  0  0  0  0
   14.3435   -4.0997    0.0000 C    0  0  0  0  0  0  0  0  0  0  0  0
   13.1919   -3.4343    0.0000 C    0  0  0  0  0  0  0  0  0  0  0  0
   14.1740   -7.4210    0.0000 C    0  0  0  0  0  0  0  0  0  0  0  0
   13.5094   -6.2699    0.0000 C    0  0  0  0  0  0  0  0  0  0  0  0
   12.1792   -6.2701    0.0000 C    0  0  0  0  0  0  0  0  0  0  0  0
   11.5146   -5.1190    0.0000 C    0  0  0  0  0  0  0  0  0  0  0  0
   10.1846   -5.1195    0.0000 C    0  0  0  0  0  0  0  0  0  0  0  0
  1  2  1  0  0  0  0
  1  3  1  0  0  0  0
  2  5  1  0  0  0  0
  3  4  2  0  0  0  0
  4  6  1  0  0  0  0
  5  7  2  0  0  0  0
  6  8  1  0  0  0  0
  7  8  1  0  0  0  0
  9 10  1  0  0  0  0
  2  9  1  0  0  0  0
  9 11  1  0  0  0  0
 11 12  1  0  0  0  0
 12 13  1  0  0  0  0
 13 14  1  0  0  0  0
 14 15  1  0  0  0  0
 11 16  1  0  0  0  0
 16 17  1  0  0  0  0
 17 18  1  0  0  0  0
 18 19  1  0  0  0  0
 11 20  1  0  0  0  0
 20 21  1  0  0  0  0
 21 22  1  0  0  0  0
 22 23  1  0  0  0  0
 23 24  1  0  0  0  0
M  END
> <NMREDATA_VERSION>
1.1

> <NMREDATA_LEVEL>
0

> <NMREDATA_SOLVENT>
C6D6

> <NMREDATA_TEMPERATURE>
298

> <NMREDATA_FORMULA>
C22H44PRh

> <NMREDATA_SMILES>
CCCCCP([Rh](C1C=CCCC=CC1)C)(CCCC)CCCC

> <NMREDATA_ASSIGNMENT>
Rh9, 73.00, 9

> <NMREDATA_1D_103Rh>
73.00, L=Rh9

$$$$
