
  ACD/LABS03112411382D

 12 11  0  0  0  0  0  0  0  0  1 V2000
   11.7136  -15.7196    0.0000 Rh   0  0  0  0  0  0  0  0  0  0  0  0
   13.9249  -14.4698    0.0000 P    0  0  0  0  0  0  0  0  0  0  0  0
   10.0631  -16.6971    0.0000 P    0  0  0  0  0  0  0  0  0  0  0  0
   10.9284  -14.3736    0.0000 Cl   0  0  0  0  0  0  0  0  0  0  0  0
   12.6430  -17.1618    0.0000 C    0  0  0  0  0  0  0  0  0  0  0  0
   13.3481  -18.6040    0.0000 O    0  0  0  0  0  0  0  0  0  0  0  0
    8.8774  -18.0912    0.0000 C    0  0  0  0  0  0  0  0  0  0  0  0
   10.5118  -18.4918    0.0000 C    0  0  0  0  0  0  0  0  0  0  0  0
   16.0081  -14.4698    0.0000 C    0  0  0  0  0  0  0  0  0  0  0  0
   13.9730  -13.0436    0.0000 C    0  0  0  0  0  0  0  0  0  0  0  0
    8.1723  -16.3606    0.0000 C    0  0  0  0  0  0  0  0  0  0  0  0
   14.9505  -15.7837    0.0000 C    0  0  0  0  0  0  0  0  0  0  0  0
  1  2  1  0  0  0  0
  1  3  1  0  0  0  0
  1  4  1  0  0  0  0
  1  5  1  0  0  0  0
  5  6  3  0  0  0  0
  3  7  1  0  0  0  0
  3  8  1  0  0  0  0
  2  9  1  0  0  0  0
  2 10  1  0  0  0  0
  3 11  1  0  0  0  0
  2 12  1  0  0  0  0
M  END
> <NMREDATA_VERSION>
1.1

> <NMREDATA_LEVEL>
0

> <NMREDATA_SOLVENT>
C6D6

> <NMREDATA_FORMULA>
C7H20ClOP2Rh

> <NMREDATA_SMILES>
[O]#C[Rh](P(C)(C)C)(P(C)(C)C)Cl

> <NMREDATA_ASSIGNMENT>
Rh1, -415.00, 1

> <NMREDATA_1D_103Rh>
-415.00, L=Rh1

$$$$
