
  ACD/LABS02122411372D

 20 20  0  0  0  0  0  0  0  0  1 V2000
   23.2367   -7.7210    0.0000 C    0  0  0  0  0  0  0  0  0  0  0  0
   21.9172   -7.8995    0.0000 C    0  0  0  0  0  0  0  0  0  0  0  0
   24.2901   -8.5353    0.0000 C    0  0  0  0  0  0  0  0  0  0  0  0
   24.4642   -9.8471    0.0000 C    0  0  0  0  0  0  0  0  0  0  0  0
   21.1106   -8.9485    0.0000 C    0  0  0  0  0  0  0  0  0  0  0  0
   23.6497  -10.9002    0.0000 C    0  0  0  0  0  0  0  0  0  0  0  0
   21.2894  -10.2678    0.0000 C    0  0  0  0  0  0  0  0  0  0  0  0
   22.3381  -11.0746    0.0000 C    0  0  0  0  0  0  0  0  0  0  0  0
   21.2527   -6.7484    0.0000 Rh   0  0  0  0  0  0  0  0  0  0  0  0
   21.9225   -5.6045    0.0000 C    0  0  0  0  0  0  0  0  0  0  0  0
   19.9347   -6.7521    0.0000 P    0  0  0  0  0  5  0  0  0  0  0  0
   19.9341   -8.0619    0.0000 C    0  0  0  0  0  0  0  0  0  0  0  0
   18.7828   -8.7267    0.0000 C    0  0  0  0  0  0  0  0  0  0  0  0
   18.7832  -10.0567    0.0000 C    0  0  0  0  0  0  0  0  0  0  0  0
   19.9342   -5.4221    0.0000 C    0  0  0  0  0  0  0  0  0  0  0  0
   18.7827   -4.7567    0.0000 C    0  0  0  0  0  0  0  0  0  0  0  0
   18.7822   -3.4267    0.0000 C    0  0  0  0  0  0  0  0  0  0  0  0
   18.6127   -6.7480    0.0000 C    0  0  0  0  0  0  0  0  0  0  0  0
   17.9481   -5.5969    0.0000 C    0  0  0  0  0  0  0  0  0  0  0  0
   16.6179   -5.5971    0.0000 C    0  0  0  0  0  0  0  0  0  0  0  0
  1  2  1  0  0  0  0
  1  3  1  0  0  0  0
  2  5  1  0  0  0  0
  3  4  2  0  0  0  0
  4  6  1  0  0  0  0
  5  7  2  0  0  0  0
  6  8  1  0  0  0  0
  7  8  1  0  0  0  0
  9 10  1  0  0  0  0
  2  9  1  0  0  0  0
  9 11  1  0  0  0  0
 11 12  1  0  0  0  0
 12 13  1  0  0  0  0
 13 14  1  0  0  0  0
 11 15  1  0  0  0  0
 15 16  1  0  0  0  0
 16 17  1  0  0  0  0
 11 18  1  0  0  0  0
 18 19  1  0  0  0  0
 19 20  1  0  0  0  0
M  END
> <NMREDATA_VERSION>
1.1

> <NMREDATA_LEVEL>
0

> <NMREDATA_SOLVENT>
C6D6

> <NMREDATA_TEMPERATURE>
298

> <NMREDATA_FORMULA>
C18H36PRh

> <NMREDATA_SMILES>
CCCP([Rh](C1C=CCCC=CC1)C)(CCC)CCC

> <NMREDATA_ASSIGNMENT>
Rh9, 73.00, 9

> <NMREDATA_1D_103Rh>
73.00, L=Rh9

$$$$
