
  ACD/LABS03282419112D

 49 55  0  0  0  0  0  0  0  0  1 V2000
   13.7233   -9.1524    0.0000 C    0  0  0  0  0  0  0  0  0  0  0  0
   12.4221   -8.9204    0.0000 C    0  0  0  0  0  0  0  0  0  0  0  0
   14.5844   -8.1434    0.0000 C    0  0  0  0  0  0  0  0  0  0  0  0
   11.9653   -7.6685    0.0000 C    0  0  0  0  0  0  0  0  0  0  0  0
   14.1277   -6.8909    0.0000 C    0  0  0  0  0  0  0  0  0  0  0  0
   12.8218   -6.6516    0.0000 C    0  0  0  0  0  0  0  0  0  0  0  0
   13.7745  -11.7953    0.0000 Rh   0  0  0  0  0  0  0  0  0  0  0  0
   12.6180  -12.4529    0.0000 C    0  0  0  0  0  0  0  0  0  0  0  0
   11.5917  -13.3014    0.0000 N    0  0  0  0  0  0  0  0  0  0  0  0
   14.9311  -11.1380    0.0000 H    0  0  0  0  0  0  0  0  0  0  0  0
   13.5397  -13.1090    0.0000 H    0  0  0  0  0  0  0  0  0  0  0  0
   15.3037   -7.6152    0.0000 P    0  0  0  0  0  0  0  0  0  0  0  0
   11.5608   -9.9301    0.0000 P    0  0  0  0  0  0  0  0  0  0  0  0
   19.5060  -10.3707    0.0000 C    0  0  0  0  0  0  0  0  0  0  0  0
   18.2468   -9.9100    0.0000 C    0  0  0  0  0  0  0  0  0  0  0  0
   20.5201   -9.5193    0.0000 C    0  0  0  0  0  0  0  0  0  0  0  0
   18.0254   -8.6037    0.0000 C    0  0  0  0  0  0  0  0  0  0  0  0
   20.2944   -8.2054    0.0000 C    0  0  0  0  0  0  0  0  0  0  0  0
   19.0515   -7.7558    0.0000 C    0  0  0  0  0  0  0  0  0  0  0  0
   10.8210   -5.3488    0.0000 C    0  0  0  0  0  0  0  0  0  0  0  0
   11.8377   -6.2060    0.0000 C    0  0  0  0  0  0  0  0  0  0  0  0
   11.0399   -4.0442    0.0000 C    0  0  0  0  0  0  0  0  0  0  0  0
   13.0817   -5.7537    0.0000 C    0  0  0  0  0  0  0  0  0  0  0  0
   12.2921   -3.5877    0.0000 C    0  0  0  0  0  0  0  0  0  0  0  0
   13.3092   -4.4446    0.0000 C    0  0  0  0  0  0  0  0  0  0  0  0
   17.5280   -4.8867    0.0000 C    0  0  0  0  0  0  0  0  0  0  0  0
   17.0705   -6.1342    0.0000 C    0  0  0  0  0  0  0  0  0  0  0  0
   16.6719   -3.8654    0.0000 C    0  0  0  0  0  0  0  0  0  0  0  0
   15.7612   -6.3677    0.0000 C    0  0  0  0  0  0  0  0  0  0  0  0
   15.3705   -4.0944    0.0000 C    0  0  0  0  0  0  0  0  0  0  0  0
   14.9051   -5.3464    0.0000 C    0  0  0  0  0  0  0  0  0  0  0  0
    8.7022  -12.0924    0.0000 C    0  0  0  0  0  0  0  0  0  0  0  0
    9.3679  -10.9397    0.0000 C    0  0  0  0  0  0  0  0  0  0  0  0
    9.3595  -13.2490    0.0000 C    0  0  0  0  0  0  0  0  0  0  0  0
   10.7037  -10.9468    0.0000 C    0  0  0  0  0  0  0  0  0  0  0  0
   10.6862  -13.2404    0.0000 C    0  0  0  0  0  0  0  0  0  0  0  0
   11.3612  -12.1038    0.0000 C    0  0  0  0  0  0  0  0  0  0  0  0
   10.1898   -7.9458    0.0000 C    0  0  0  0  0  0  0  0  0  0  0  0
   10.4079   -9.2640    0.0000 C    0  0  0  0  0  0  0  0  0  0  0  0
    8.9423   -7.4882    0.0000 C    0  0  0  0  0  0  0  0  0  0  0  0
    9.3895  -10.1079    0.0000 C    0  0  0  0  0  0  0  0  0  0  0  0
    7.9164   -8.3365    0.0000 C    0  0  0  0  0  0  0  0  0  0  0  0
    8.1378   -9.6429    0.0000 C    0  0  0  0  0  0  0  0  0  0  0  0
   14.8604  -12.5631    0.0000 N    0  0  0  0  0  0  0  0  0  0  0  0
   16.0684  -12.0065    0.0000 C    0  0  0  0  0  0  0  0  0  0  0  0
   14.7385  -13.8876    0.0000 C    0  0  0  0  0  0  0  0  0  0  0  0
   17.1544  -12.7745    0.0000 C    0  0  0  0  0  0  0  0  0  0  0  0
   15.8245  -14.6554    0.0000 C    0  0  0  0  0  0  0  0  0  0  0  0
   17.0324  -14.0988    0.0000 C    0  0  0  0  0  0  0  0  0  0  0  0
  1  2  1  0  0  0  0
  1  3  2  0  0  0  0
  2  4  2  0  0  0  0
  3  5  1  0  0  0  0
  4  6  1  0  0  0  0
  5  6  2  0  0  0  0
  8  9  3  0  0  0  0
  7  8  1  0  0  0  0
  7 10  1  0  0  0  0
  7 11  1  0  0  0  0
  7 12  1  0  0  0  0
  7 13  1  0  0  0  0
 14 15  1  0  0  0  0
 14 16  2  0  0  0  0
 15 17  2  0  0  0  0
 16 18  1  0  0  0  0
 17 19  1  0  0  0  0
 18 19  2  0  0  0  0
 12 17  1  0  0  0  0
 20 21  1  0  0  0  0
 20 22  2  0  0  0  0
 21 23  2  0  0  0  0
 22 24  1  0  0  0  0
 23 25  1  0  0  0  0
 24 25  2  0  0  0  0
 12 23  1  0  0  0  0
 26 27  1  0  0  0  0
 26 28  2  0  0  0  0
 27 29  2  0  0  0  0
 28 30  1  0  0  0  0
 29 31  1  0  0  0  0
 30 31  2  0  0  0  0
 12 29  1  0  0  0  0
 32 33  1  0  0  0  0
 32 34  2  0  0  0  0
 33 35  2  0  0  0  0
 34 36  1  0  0  0  0
 35 37  1  0  0  0  0
 36 37  2  0  0  0  0
 13 35  1  0  0  0  0
 38 39  1  0  0  0  0
 38 40  2  0  0  0  0
 39 41  2  0  0  0  0
 40 42  1  0  0  0  0
 41 43  1  0  0  0  0
 42 43  2  0  0  0  0
 13 39  1  0  0  0  0
  2 13  1  0  0  0  0
 44 45  1  0  0  0  0
 44 46  2  0  0  0  0
 45 47  2  0  0  0  0
 46 48  1  0  0  0  0
 47 49  1  0  0  0  0
 48 49  2  0  0  0  0
  7 44  1  0  0  0  0
M  END
> <NMREDATA_VERSION>
1.1

> <NMREDATA_LEVEL>
0

> <NMREDATA_SOLVENT>
toluene-d8

> <NMREDATA_TEMPERATURE>
300

> <NMREDATA_FORMULA>
C42H40N2P2Rh

> <NMREDATA_SMILES>
N#C[RhH2](P(c1ccccc1)(c1ccccc1)c1ccccc1)(P(c1ccccc1)(c1ccccc1)c1ccccc1)N1=CC=CC=C1

> <NMREDATA_ASSIGNMENT>
Rh7, 56.00, 7

> <NMREDATA_1D_103Rh>
56.00, L=Rh7

$$$$
