
  ACD/LABS04012414522D

 75 82  0  0  0  0  0  0  0  0  2 V2000
   13.0095   -8.8596    0.0000 Rh   0  0  0  0  0  0  0  0  0  0  0  0
   11.8577   -8.1946    0.0000 H    0  0  0  0  0  0  0  0  0  0  0  0
   15.3132   -3.5396    0.0000 C    0  0  0  0  0  0  0  0  0  0  0  0
   15.3132   -4.8696    0.0000 C    0  0  0  0  0  0  0  0  0  0  0  0
   14.1614   -2.8746    0.0000 C    0  0  0  0  0  0  0  0  0  0  0  0
   14.1614   -5.5346    0.0000 C    0  0  0  0  0  0  0  0  0  0  0  0
   13.0095   -3.5396    0.0000 C    0  0  0  0  0  0  0  0  0  0  0  0
   13.0095   -4.8696    0.0000 C    0  0  0  0  0  0  0  0  0  0  0  0
   14.1614   -8.1946    0.0000 Au   0  3  0  0  0  0  0  0  0  0  0  0
   14.1614   -6.8646    0.0000 P    0  0  0  0  0  0  0  0  0  0  0  0
   15.4914   -6.8646    0.0000 C    0  0  0  0  0  0  0  0  0  0  0  0
   16.1564   -5.7128    0.0000 C    0  0  0  0  0  0  0  0  0  0  0  0
   16.1564   -8.0164    0.0000 C    0  0  0  0  0  0  0  0  0  0  0  0
   17.4864   -5.7128    0.0000 C    0  0  0  0  0  0  0  0  0  0  0  0
   17.4864   -8.0164    0.0000 C    0  0  0  0  0  0  0  0  0  0  0  0
   18.1514   -6.8646    0.0000 C    0  0  0  0  0  0  0  0  0  0  0  0
   12.8314   -6.8646    0.0000 C    0  0  0  0  0  0  0  0  0  0  0  0
   12.1664   -8.0164    0.0000 C    0  0  0  0  0  0  0  0  0  0  0  0
   12.1664   -5.7128    0.0000 C    0  0  0  0  0  0  0  0  0  0  0  0
   10.8364   -8.0164    0.0000 C    0  0  0  0  0  0  0  0  0  0  0  0
   10.8364   -5.7128    0.0000 C    0  0  0  0  0  0  0  0  0  0  0  0
   10.1714   -6.8646    0.0000 C    0  0  0  0  0  0  0  0  0  0  0  0
   13.0095  -11.5196    0.0000 C    0  0  0  0  0  0  0  0  0  0  0  0
   14.1614  -12.1846    0.0000 C    0  0  0  0  0  0  0  0  0  0  0  0
   14.1614  -13.5146    0.0000 P    0  0  0  0  0  0  0  0  0  0  0  0
   13.0095  -14.1796    0.0000 C    0  0  0  0  0  0  0  0  0  0  0  0
   13.0095  -15.5096    0.0000 C    0  0  0  0  0  0  0  0  0  0  0  0
   11.8577  -13.5146    0.0000 C    0  0  0  0  0  0  0  0  0  0  0  0
   11.8577  -16.1746    0.0000 C    0  0  0  0  0  0  0  0  0  0  0  0
   10.7059  -14.1796    0.0000 C    0  0  0  0  0  0  0  0  0  0  0  0
   10.7059  -15.5096    0.0000 C    0  0  0  0  0  0  0  0  0  0  0  0
   17.6168  -15.5096    0.0000 C    0  0  0  0  0  0  0  0  0  0  0  0
   16.4650  -16.1746    0.0000 C    0  0  0  0  0  0  0  0  0  0  0  0
   17.6168  -14.1796    0.0000 C    0  0  0  0  0  0  0  0  0  0  0  0
   15.3132  -15.5096    0.0000 C    0  0  0  0  0  0  0  0  0  0  0  0
   16.4650  -13.5146    0.0000 C    0  0  0  0  0  0  0  0  0  0  0  0
   15.3132  -14.1796    0.0000 C    0  0  0  0  0  0  0  0  0  0  0  0
   11.6795  -10.1896    0.0000 C    0  0  0  0  0  0  0  0  0  0  0  0
   11.0145   -9.0378    0.0000 C    0  0  0  0  0  0  0  0  0  0  0  0
    9.6845   -9.0378    0.0000 P    0  0  0  0  0  0  0  0  0  0  0  0
    9.0195   -7.8859    0.0000 C    0  0  0  0  0  0  0  0  0  0  0  0
    7.6895   -7.8859    0.0000 C    0  0  0  0  0  0  0  0  0  0  0  0
    9.6845   -6.7341    0.0000 C    0  0  0  0  0  0  0  0  0  0  0  0
    7.0245   -6.7341    0.0000 C    0  0  0  0  0  0  0  0  0  0  0  0
    9.0195   -5.5823    0.0000 C    0  0  0  0  0  0  0  0  0  0  0  0
    7.6895   -5.5823    0.0000 C    0  0  0  0  0  0  0  0  0  0  0  0
    7.6895  -12.4932    0.0000 C    0  0  0  0  0  0  0  0  0  0  0  0
    7.0245  -11.3414    0.0000 C    0  0  0  0  0  0  0  0  0  0  0  0
    9.0195  -12.4932    0.0000 C    0  0  0  0  0  0  0  0  0  0  0  0
    7.6895  -10.1896    0.0000 C    0  0  0  0  0  0  0  0  0  0  0  0
    9.6845  -11.3414    0.0000 C    0  0  0  0  0  0  0  0  0  0  0  0
    9.0195  -10.1896    0.0000 C    0  0  0  0  0  0  0  0  0  0  0  0
   13.0095  -10.1896    0.0000 P    0  0  0  0  0  0  0  0  0  0  0  0
   14.3395  -10.1896    0.0000 C    0  0  0  0  0  0  0  0  0  0  0  0
   15.0045  -11.3414    0.0000 C    0  0  0  0  0  0  0  0  0  0  0  0
   16.3345  -11.3414    0.0000 P    0  0  0  0  0  0  0  0  0  0  0  0
   16.9995  -12.4932    0.0000 C    0  0  0  0  0  0  0  0  0  0  0  0
   18.3295  -12.4932    0.0000 C    0  0  0  0  0  0  0  0  0  0  0  0
   16.3345  -13.6450    0.0000 C    0  0  0  0  0  0  0  0  0  0  0  0
   18.9946  -13.6450    0.0000 C    0  0  0  0  0  0  0  0  0  0  0  0
   16.9995  -14.7968    0.0000 C    0  0  0  0  0  0  0  0  0  0  0  0
   18.3295  -14.7968    0.0000 C    0  0  0  0  0  0  0  0  0  0  0  0
   18.3295   -7.8859    0.0000 C    0  0  0  0  0  0  0  0  0  0  0  0
   18.9946   -9.0378    0.0000 C    0  0  0  0  0  0  0  0  0  0  0  0
   16.9995   -7.8859    0.0000 C    0  0  0  0  0  0  0  0  0  0  0  0
   18.3295  -10.1896    0.0000 C    0  0  0  0  0  0  0  0  0  0  0  0
   16.3345   -9.0378    0.0000 C    0  0  0  0  0  0  0  0  0  0  0  0
   16.9995  -10.1896    0.0000 C    0  0  0  0  0  0  0  0  0  0  0  0
   26.9365   -9.4462    0.0000 P    0  5  0  0  0  0  0  0  0  0  0  0
   26.9365   -8.3566    0.0000 F    0  0  0  0  0  0  0  0  0  0  0  0
   25.9929   -8.9014    0.0000 F    0  0  0  0  0  0  0  0  0  0  0  0
   27.8802   -8.9014    0.0000 F    0  0  0  0  0  0  0  0  0  0  0  0
   27.8802   -9.9910    0.0000 F    0  0  0  0  0  0  0  0  0  0  0  0
   25.9929   -9.9910    0.0000 F    0  0  0  0  0  0  0  0  0  0  0  0
   26.9365  -10.5358    0.0000 F    0  0  0  0  0  0  0  0  0  0  0  0
  1  2  1  0  0  0  0
  3  4  1  0  0  0  0
  3  5  2  0  0  0  0
  4  6  2  0  0  0  0
  5  7  1  0  0  0  0
  6  8  1  0  0  0  0
  7  8  2  0  0  0  0
  9 10  1  0  0  0  0
 11 12  1  0  0  0  0
 11 13  2  0  0  0  0
 12 14  2  0  0  0  0
 13 15  1  0  0  0  0
 14 16  1  0  0  0  0
 15 16  2  0  0  0  0
 10 11  1  0  0  0  0
 17 18  1  0  0  0  0
 17 19  2  0  0  0  0
 18 20  2  0  0  0  0
 19 21  1  0  0  0  0
 20 22  1  0  0  0  0
 21 22  2  0  0  0  0
 10 17  1  0  0  0  0
  6 10  1  0  0  0  0
  1  9  1  0  0  0  0
 23 24  1  0  0  0  0
 24 25  1  0  0  0  0
 26 27  1  0  0  0  0
 26 28  2  0  0  0  0
 27 29  2  0  0  0  0
 28 30  1  0  0  0  0
 29 31  1  0  0  0  0
 30 31  2  0  0  0  0
 25 26  1  0  0  0  0
 32 33  1  0  0  0  0
 32 34  2  0  0  0  0
 33 35  2  0  0  0  0
 34 36  1  0  0  0  0
 35 37  1  0  0  0  0
 36 37  2  0  0  0  0
 25 37  1  0  0  0  0
 38 39  1  0  0  0  0
 39 40  1  0  0  0  0
 41 42  1  0  0  0  0
 41 43  2  0  0  0  0
 42 44  2  0  0  0  0
 43 45  1  0  0  0  0
 44 46  1  0  0  0  0
 45 46  2  0  0  0  0
 40 41  1  0  0  0  0
 47 48  1  0  0  0  0
 47 49  2  0  0  0  0
 48 50  2  0  0  0  0
 49 51  1  0  0  0  0
 50 52  1  0  0  0  0
 51 52  2  0  0  0  0
 40 52  1  0  0  0  0
 53 54  1  0  0  0  0
 54 55  1  0  0  0  0
 55 56  1  0  0  0  0
 57 58  1  0  0  0  0
 57 59  2  0  0  0  0
 58 60  2  0  0  0  0
 59 61  1  0  0  0  0
 60 62  1  0  0  0  0
 61 62  2  0  0  0  0
 56 57  1  0  0  0  0
 63 64  1  0  0  0  0
 63 65  2  0  0  0  0
 64 66  2  0  0  0  0
 65 67  1  0  0  0  0
 66 68  1  0  0  0  0
 67 68  2  0  0  0  0
 56 68  1  0  0  0  0
 38 53  1  0  0  0  0
 23 53  1  0  0  0  0
  1 53  1  0  0  0  0
 69 70  1  0  0  0  0
 69 71  1  0  0  0  0
 69 72  1  0  0  0  0
 69 73  1  0  0  0  0
 69 74  1  0  0  0  0
 69 75  1  0  0  0  0
M  END
> <NMREDATA_VERSION>
1.1

> <NMREDATA_LEVEL>
0

> <NMREDATA_SOLVENT>
CD2Cl2

> <NMREDATA_TEMPERATURE>
303

> <NMREDATA_FORMULA>
C60H60AuF6P6Rh

> <NMREDATA_SMILES>
c1ccc(cc1)P(c1ccccc1)CCP([RhH][Au]P(c1ccccc1)(c1ccccc1)c1ccccc1)(CCP(c1ccccc1)c1ccccc1)CCP(c1ccccc1)c1ccccc1.F[P](F)(F)(F)(F)F

> <NMREDATA_ASSIGNMENT>
Rh1, -1159.00, 1

> <NMREDATA_1D_103Rh>
-1159.00, L=Rh1

$$$$
