
  ACD/LABS04072410482D

 48 52  0  0  0  0  0  0  0  0  2 V2000
   10.3676   -7.5634    0.0000 Rh   0  5  0  0  0  0  0  0  0  0  0  0
   10.3748   -5.1577    0.0000 C    0  0  0  0  0  0  0  0  0  0  0  0
   12.7651   -7.5566    0.0000 C    0  0  0  0  0  0  0  0  0  0  0  0
    7.9701   -7.5701    0.0000 C    0  0  0  0  0  0  0  0  0  0  0  0
   10.3744   -9.9609    0.0000 C    0  0  0  0  0  0  0  0  0  0  0  0
   10.3600   -2.7462    0.0000 O    0  0  0  0  0  0  0  0  0  0  0  0
   15.1848   -7.5558    0.0000 O    0  0  0  0  0  0  0  0  0  0  0  0
    5.5504   -7.5710    0.0000 O    0  0  0  0  0  0  0  0  0  0  0  0
   10.3752  -12.3806    0.0000 O    0  0  0  0  0  0  0  0  0  0  0  0
   31.1512   -6.5218    0.0000 C    0  0  0  0  0  0  0  0  0  0  0  0
   31.1512   -7.8518    0.0000 C    0  0  0  0  0  0  0  0  0  0  0  0
   29.9994   -5.8568    0.0000 C    0  0  0  0  0  0  0  0  0  0  0  0
   29.9994   -8.5168    0.0000 C    0  0  0  0  0  0  0  0  0  0  0  0
   28.8476   -6.5218    0.0000 C    0  0  0  0  0  0  0  0  0  0  0  0
   28.8476   -7.8518    0.0000 C    0  0  0  0  0  0  0  0  0  0  0  0
   29.6907   -2.4014    0.0000 C    0  0  0  0  0  0  0  0  0  0  0  0
   30.3557   -3.5532    0.0000 C    0  0  0  0  0  0  0  0  0  0  0  0
   28.3607   -2.4014    0.0000 C    0  0  0  0  0  0  0  0  0  0  0  0
   29.6907   -4.7050    0.0000 C    0  0  0  0  0  0  0  0  0  0  0  0
   27.6957   -3.5532    0.0000 C    0  0  0  0  0  0  0  0  0  0  0  0
   28.3607   -4.7050    0.0000 C    0  0  0  0  0  0  0  0  0  0  0  0
   25.0357   -8.1604    0.0000 C    0  0  0  0  0  0  0  0  0  0  0  0
   25.7007   -7.0086    0.0000 C    0  0  0  0  0  0  0  0  0  0  0  0
   25.7007   -9.3123    0.0000 C    0  0  0  0  0  0  0  0  0  0  0  0
   27.0307   -7.0086    0.0000 C    0  0  0  0  0  0  0  0  0  0  0  0
   27.0307   -9.3123    0.0000 C    0  0  0  0  0  0  0  0  0  0  0  0
   27.6957   -8.1604    0.0000 C    0  0  0  0  0  0  0  0  0  0  0  0
   24.2403   -6.5218    0.0000 C    0  0  0  0  0  0  0  0  0  0  0  0
   24.2403   -7.8518    0.0000 C    0  0  0  0  0  0  0  0  0  0  0  0
   23.0885   -5.8568    0.0000 C    0  0  0  0  0  0  0  0  0  0  0  0
   23.0885   -8.5168    0.0000 C    0  0  0  0  0  0  0  0  0  0  0  0
   21.9367   -6.5218    0.0000 C    0  0  0  0  0  0  0  0  0  0  0  0
   21.9367   -7.8518    0.0000 C    0  0  0  0  0  0  0  0  0  0  0  0
   25.3921   -8.1604    0.0000 C    0  0  0  0  0  0  0  0  0  0  0  0
   26.0571   -7.0086    0.0000 C    0  0  0  0  0  0  0  0  0  0  0  0
   26.0571   -9.3123    0.0000 C    0  0  0  0  0  0  0  0  0  0  0  0
   27.3871   -7.0086    0.0000 C    0  0  0  0  0  0  0  0  0  0  0  0
   27.3871   -9.3123    0.0000 C    0  0  0  0  0  0  0  0  0  0  0  0
   28.0521   -8.1604    0.0000 C    0  0  0  0  0  0  0  0  0  0  0  0
   24.7271   -2.4014    0.0000 C    0  0  0  0  0  0  0  0  0  0  0  0
   25.3921   -3.5532    0.0000 C    0  0  0  0  0  0  0  0  0  0  0  0
   23.3971   -2.4014    0.0000 C    0  0  0  0  0  0  0  0  0  0  0  0
   24.7271   -4.7050    0.0000 C    0  0  0  0  0  0  0  0  0  0  0  0
   22.7321   -3.5532    0.0000 C    0  0  0  0  0  0  0  0  0  0  0  0
   23.3971   -4.7050    0.0000 C    0  0  0  0  0  0  0  0  0  0  0  0
   26.5439   -5.1918    0.0000 N    0  3  0  0  0  0  0  0  0  0  0  0
   25.3921   -5.8568    0.0000 P    0  0  0  0  0  0  0  0  0  0  0  0
   27.6957   -5.8568    0.0000 P    0  0  0  0  0  0  0  0  0  0  0  0
  1  2  1  0  0  0  0
  1  3  1  0  0  0  0
  1  4  1  0  0  0  0
  1  5  1  0  0  0  0
  2  6  3  0  0  0  0
  3  7  3  0  0  0  0
  4  8  3  0  0  0  0
  5  9  3  0  0  0  0
 10 11  1  0  0  0  0
 10 12  2  0  0  0  0
 11 13  2  0  0  0  0
 12 14  1  0  0  0  0
 13 15  1  0  0  0  0
 14 15  2  0  0  0  0
 16 17  1  0  0  0  0
 16 18  2  0  0  0  0
 17 19  2  0  0  0  0
 18 20  1  0  0  0  0
 19 21  1  0  0  0  0
 20 21  2  0  0  0  0
 22 23  1  0  0  0  0
 22 24  2  0  0  0  0
 23 25  2  0  0  0  0
 24 26  1  0  0  0  0
 25 27  1  0  0  0  0
 26 27  2  0  0  0  0
 28 29  1  0  0  0  0
 28 30  2  0  0  0  0
 29 31  2  0  0  0  0
 30 32  1  0  0  0  0
 31 33  1  0  0  0  0
 32 33  2  0  0  0  0
 34 35  1  0  0  0  0
 34 36  2  0  0  0  0
 35 37  2  0  0  0  0
 36 38  1  0  0  0  0
 37 39  1  0  0  0  0
 38 39  2  0  0  0  0
 40 41  1  0  0  0  0
 40 42  2  0  0  0  0
 41 43  2  0  0  0  0
 42 44  1  0  0  0  0
 43 45  1  0  0  0  0
 44 45  2  0  0  0  0
 46 47  2  0  0  0  0
 46 48  2  0  0  0  0
 43 47  1  0  0  0  0
 35 47  1  0  0  0  0
 28 47  1  0  0  0  0
 25 48  1  0  0  0  0
 21 48  1  0  0  0  0
 14 48  1  0  0  0  0
M  END
> <NMREDATA_VERSION>
1.1

> <NMREDATA_LEVEL>
0

> <NMREDATA_SOLVENT>
CD3CN

> <NMREDATA_TEMPERATURE>
298

> <NMREDATA_FORMULA>
C40H31NO4P2Rh

> <NMREDATA_SMILES>
c1ccc(cc1)P(=N=P(c1ccccc1)(c1ccccc1)c1ccccc1)(c1ccccc1)c1ccccc1.[O]#C[Rh](C#[O])(C#[O])C#[O]

> <NMREDATA_ASSIGNMENT>
Rh1, -644.00, 1

> <NMREDATA_1D_103Rh>
-644.00, L=Rh1

$$$$
