
  ACD/LABS03212412532D

 57 63  0  0  0  0  0  0  0  0  2 V2000
   22.5502  -15.7270    0.0000 C    0  0  0  0  0  0  0  0  0  0  0  0
   21.2913  -15.2840    0.0000 C    0  0  0  0  0  0  0  0  0  0  0  0
   23.5513  -14.8763    0.0000 C    0  0  0  0  0  0  0  0  0  0  0  0
   21.0606  -13.9719    0.0000 C    0  0  0  0  0  0  0  0  0  0  0  0
   23.3210  -13.5641    0.0000 C    0  0  0  0  0  0  0  0  0  0  0  0
   22.0711  -13.1121    0.0000 C    0  0  0  0  0  0  0  0  0  0  0  0
   24.7393  -14.9738    0.0000 C    0  0  0  0  0  0  0  0  0  0  0  0
   25.5990  -15.9844    0.0000 C    0  0  0  0  0  0  0  0  0  0  0  0
   25.1913  -13.7240    0.0000 C    0  0  0  0  0  0  0  0  0  0  0  0
   26.9108  -15.7536    0.0000 C    0  0  0  0  0  0  0  0  0  0  0  0
   26.5030  -13.4846    0.0000 C    0  0  0  0  0  0  0  0  0  0  0  0
   27.3542  -14.5038    0.0000 C    0  0  0  0  0  0  0  0  0  0  0  0
   27.8595  -12.0925    0.0000 C    0  0  0  0  0  0  0  0  0  0  0  0
   29.1093  -11.6320    0.0000 C    0  0  0  0  0  0  0  0  0  0  0  0
   26.8313  -11.2509    0.0000 C    0  0  0  0  0  0  0  0  0  0  0  0
   29.3310  -10.3293    0.0000 C    0  0  0  0  0  0  0  0  0  0  0  0
   27.0530   -9.9391    0.0000 C    0  0  0  0  0  0  0  0  0  0  0  0
   28.3029   -9.4781    0.0000 C    0  0  0  0  0  0  0  0  0  0  0  0
   23.4714  -11.7033    0.0000 Rh   0  0  0  0  0  0  0  0  0  0  0  0
   22.6211  -10.6837    0.0000 H    0  0  0  0  0  0  0  0  0  0  0  0
   24.4910  -10.8431    0.0000 C    0  0  0  0  0  0  0  0  0  0  0  0
   25.8027  -11.0739    0.0000 O    0  0  0  0  0  0  0  0  0  0  0  0
   24.3316  -12.7044    0.0000 P    0  0  0  0  0  0  0  0  0  0  0  0
   24.2516   -9.5314    0.0000 C    0  0  0  0  0  0  0  0  0  0  0  0
   25.2712   -8.6712    0.0000 C    0  0  0  0  0  0  0  0  0  0  0  0
   23.0018   -9.0789    0.0000 C    0  0  0  0  0  0  0  0  0  0  0  0
   25.0314   -7.3685    0.0000 C    0  0  0  0  0  0  0  0  0  0  0  0
   22.7805   -7.7762    0.0000 C    0  0  0  0  0  0  0  0  0  0  0  0
   23.7816   -6.9161    0.0000 C    0  0  0  0  0  0  0  0  0  0  0  0
   23.5423   -5.6043    0.0000 N    0  3  0  0  0  0  0  0  0  0  0  0
   22.3019   -5.1609    0.0000 O    0  5  0  0  0  0  0  0  0  0  0  0
   24.5618   -4.7441    0.0000 O    0  0  0  0  0  0  0  0  0  0  0  0
   20.9811  -13.1564    0.0000 B    0  0  0  0  0  0  0  0  0  0  0  0
   21.0078  -16.0553    0.0000 N    0  0  0  0  0  0  0  0  0  0  0  0
   19.9439  -16.8441    0.0000 C    0  0  0  0  0  0  0  0  0  0  0  0
   22.0978  -16.8265    0.0000 N    0  0  0  0  0  0  0  0  0  0  0  0
   20.3693  -18.1030    0.0000 C    0  0  0  0  0  0  0  0  0  0  0  0
   21.6991  -18.0940    0.0000 C    0  0  0  0  0  0  0  0  0  0  0  0
   20.5201  -11.9160    0.0000 N    0  0  0  0  0  0  0  0  0  0  0  0
   19.2346  -11.5611    0.0000 C    0  0  0  0  0  0  0  0  0  0  0  0
   21.2557  -10.8079    0.0000 N    0  0  0  0  0  0  0  0  0  0  0  0
   19.1813  -10.2317    0.0000 C    0  0  0  0  0  0  0  0  0  0  0  0
   20.4226   -9.7707    0.0000 C    0  0  0  0  0  0  0  0  0  0  0  0
   19.7312  -13.6174    0.0000 N    0  0  0  0  0  0  0  0  0  0  0  0
   19.3763  -14.8939    0.0000 C    0  0  0  0  0  0  0  0  0  0  0  0
   18.6232  -12.8818    0.0000 N    0  0  0  0  0  0  0  0  0  0  0  0
   18.0470  -14.9558    0.0000 C    0  0  0  0  0  0  0  0  0  0  0  0
   17.5860  -13.7059    0.0000 C    0  0  0  0  0  0  0  0  0  0  0  0
   20.7860   -8.4852    0.0000 C    0  0  0  0  0  0  0  0  0  0  0  0
   18.0732   -9.4957    0.0000 C    0  0  0  0  0  0  0  0  0  0  0  0
   16.3004  -13.3514    0.0000 C    0  0  0  0  0  0  0  0  0  0  0  0
   17.3110  -16.0638    0.0000 C    0  0  0  0  0  0  0  0  0  0  0  0
   22.4879  -19.1578    0.0000 C    0  0  0  0  0  0  0  0  0  0  0  0
   19.5980  -19.1935    0.0000 C    0  0  0  0  0  0  0  0  0  0  0  0
   30.0933   -9.9990    0.0000 F    0  0  0  0  0  0  0  0  0  0  0  0
   27.4813  -17.0016    0.0000 F    0  0  0  0  0  0  0  0  0  0  0  0
   20.4788  -15.6075    0.0000 F    0  0  0  0  0  0  0  0  0  0  0  0
  1  2  1  0  0  0  0
  1  3  2  0  0  0  0
  2  4  2  0  0  0  0
  3  5  1  0  0  0  0
  4  6  1  0  0  0  0
  5  6  2  0  0  0  0
  7  8  1  0  0  0  0
  7  9  2  0  0  0  0
  8 10  2  0  0  0  0
  9 11  1  0  0  0  0
 10 12  1  0  0  0  0
 11 12  2  0  0  0  0
 13 14  1  0  0  0  0
 13 15  2  0  0  0  0
 14 16  2  0  0  0  0
 15 17  1  0  0  0  0
 16 18  1  0  0  0  0
 17 18  2  0  0  0  0
 19 20  1  0  0  0  0
 19 21  1  0  0  0  0
 21 22  2  0  0  0  0
 19 23  1  0  0  0  0
 15 23  1  0  0  0  0
  9 23  1  0  0  0  0
  5 23  1  0  0  0  0
 24 25  1  0  0  0  0
 24 26  2  0  0  0  0
 25 27  2  0  0  0  0
 26 28  1  0  0  0  0
 27 29  1  0  0  0  0
 28 29  2  0  0  0  0
 21 24  1  0  0  0  0
 30 31  1  0  0  0  0
 30 32  2  0  0  0  0
 29 30  1  0  0  0  0
 34 35  1  0  0  0  0
 34 36  1  0  0  0  0
 35 37  2  0  0  0  0
 36 38  2  0  0  0  0
 37 38  1  0  0  0  0
 33 34  1  0  0  0  0
 39 40  1  0  0  0  0
 39 41  1  0  0  0  0
 40 42  2  0  0  0  0
 41 43  2  0  0  0  0
 42 43  1  0  0  0  0
 33 39  1  0  0  0  0
 44 45  1  0  0  0  0
 44 46  1  0  0  0  0
 45 47  2  0  0  0  0
 46 48  2  0  0  0  0
 47 48  1  0  0  0  0
 33 44  1  0  0  0  0
 43 49  1  0  0  0  0
 42 50  1  0  0  0  0
 48 51  1  0  0  0  0
 47 52  1  0  0  0  0
 38 53  1  0  0  0  0
 37 54  1  0  0  0  0
 19 33  1  0  0  0  0
 16 55  1  0  0  0  0
 10 56  1  0  0  0  0
  2 57  1  0  0  0  0
M  END
> <NMREDATA_VERSION>
1.1

> <NMREDATA_LEVEL>
0

> <NMREDATA_SOLVENT>
CD2Cl2

> <NMREDATA_TEMPERATURE>
300

> <NMREDATA_FORMULA>
C40H41BF3N7O3PRh

> <NMREDATA_SMILES>
Fc1ccc(cc1)P([RhH]([B](n1nc(c(c1)C)C)(n1nc(c(c1)C)C)n1nc(c(c1)C)C)C(=O)c1ccc(cc1)N(=O)O)(c1ccc(cc1)F)c1ccc(cc1)F

> <NMREDATA_ASSIGNMENT>
Rh19, 1727.00, 19

> <NMREDATA_1D_103Rh>
1727.00, L=Rh19

$$$$
