
  ACD/LABS02222414132D

 12 12  0  0  0  0  0  0  0  0  1 V2000
   13.9400   -8.1877    0.0000 C    0  0  0  0  0  0  0  0  0  0  0  0
   12.7947   -8.8489    0.0000 C    0  0  0  0  0  0  0  0  0  0  0  0
   14.9281   -9.0828    0.0000 C    0  0  0  0  0  0  0  0  0  0  0  0
   13.0757  -10.1523    0.0000 C    0  0  0  0  0  0  0  0  0  0  0  0
   14.3965  -10.2918    0.0000 C    0  0  0  0  0  0  0  0  0  0  0  0
   15.6019  -10.8357    0.0000 Rh   0  0  0  0  0  0  0  0  0  0  0  0
   15.7488  -12.1549    0.0000 C    0  0  0  0  0  0  0  0  0  0  0  0
   16.6763  -10.0514    0.0000 C    0  0  0  0  0  0  0  0  0  0  0  0
   15.8880  -13.4788    0.0000 O    0  0  0  0  0  0  0  0  0  0  0  0
   17.7505   -9.2672    0.0000 O    0  0  0  0  0  0  0  0  0  0  0  0
   14.2568  -11.6123    0.0000 C    0  0  0  0  0  0  0  0  0  0  0  0
   13.0406  -12.1505    0.0000 O    0  0  0  0  0  0  0  0  0  0  0  0
  1  2  1  0  0  0  0
  1  3  2  0  0  0  0
  2  4  2  0  0  0  0
  3  5  1  0  0  0  0
  4  5  1  0  0  0  0
  5  6  1  0  0  0  0
  6  7  1  0  0  0  0
  6  8  1  0  0  0  0
  7  9  3  0  0  0  0
  8 10  3  0  0  0  0
  5 11  1  0  0  0  0
 11 12  2  0  0  0  0
M  END
> <NMREDATA_VERSION>
1.1

> <NMREDATA_LEVEL>
0

> <NMREDATA_SOLVENT>
C6D6

> <NMREDATA_TEMPERATURE>
298

> <NMREDATA_FORMULA>
C8H5O3Rh

> <NMREDATA_SMILES>
O=CC1(C=CC=C1)[Rh](C#[O])C#[O]

> <NMREDATA_ASSIGNMENT>
Rh6, -1191.00, 6

> <NMREDATA_1D_103Rh>
-1191.00, L=Rh6

$$$$
