
  ACD/LABS03152412572D

 39 42  0  0  0  0  0  0  0  0  1 V2000
   10.1969   -9.2749    0.0000 C    0  0  0  0  0  0  0  0  0  0  0  0
    9.4922   -8.0543    0.0000 C    0  0  0  0  0  0  0  0  0  0  0  0
    9.4913  -10.4962    0.0000 C    0  0  0  0  0  0  0  0  0  0  0  0
    8.0817   -8.0547    0.0000 C    0  0  0  0  0  0  0  0  0  0  0  0
    8.0808  -10.4966    0.0000 C    0  0  0  0  0  0  0  0  0  0  0  0
    7.3761   -9.2760    0.0000 C    0  0  0  0  0  0  0  0  0  0  0  0
    9.5972  -13.9504    0.0000 C    0  0  0  0  0  0  0  0  0  0  0  0
   10.6748  -13.0352    0.0000 C    0  0  0  0  0  0  0  0  0  0  0  0
    9.8447  -15.3378    0.0000 C    0  0  0  0  0  0  0  0  0  0  0  0
   12.0046  -13.5153    0.0000 C    0  0  0  0  0  0  0  0  0  0  0  0
   11.1696  -15.8095    0.0000 C    0  0  0  0  0  0  0  0  0  0  0  0
   12.2521  -14.9027    0.0000 C    0  0  0  0  0  0  0  0  0  0  0  0
   10.1962  -11.7172    0.0000 P    0  0  0  0  0  0  0  0  0  0  0  0
    8.8740  -12.2089    0.0000 C    0  0  0  0  0  0  0  0  0  0  0  0
    8.6281  -13.5875    0.0000 C    0  0  0  0  0  0  0  0  0  0  0  0
    7.3064  -14.0800    0.0000 O    0  0  0  0  0  0  0  0  0  0  0  0
    7.0609  -15.4585    0.0000 C    0  0  0  0  0  0  0  0  0  0  0  0
   13.0762  -10.6731    0.0000 Rh   0  0  0  0  0  0  0  0  0  0  0  0
   12.5921   -9.3465    0.0000 Cl   0  0  0  0  0  0  0  0  0  0  0  0
   16.3790   -7.2033    0.0000 C    0  0  0  0  0  0  0  0  0  0  0  0
   15.8919   -5.8892    0.0000 C    0  0  0  0  0  0  0  0  0  0  0  0
   15.4760   -8.2889    0.0000 C    0  0  0  0  0  0  0  0  0  0  0  0
   14.5002   -5.6401    0.0000 C    0  0  0  0  0  0  0  0  0  0  0  0
   14.0889   -8.0478    0.0000 C    0  0  0  0  0  0  0  0  0  0  0  0
   13.5970   -6.7263    0.0000 C    0  0  0  0  0  0  0  0  0  0  0  0
   18.3545  -10.0232    0.0000 C    0  0  0  0  0  0  0  0  0  0  0  0
   17.2814   -9.1232    0.0000 C    0  0  0  0  0  0  0  0  0  0  0  0
   19.6811   -9.5391    0.0000 C    0  0  0  0  0  0  0  0  0  0  0  0
   17.5227   -7.7365    0.0000 C    0  0  0  0  0  0  0  0  0  0  0  0
   19.9217   -8.1523    0.0000 C    0  0  0  0  0  0  0  0  0  0  0  0
   18.8495   -7.2528    0.0000 C    0  0  0  0  0  0  0  0  0  0  0  0
   15.9548   -9.6073    0.0000 P    0  0  0  0  0  0  0  0  0  0  0  0
   16.4340  -10.9255    0.0000 C    0  0  0  0  0  0  0  0  0  0  0  0
   17.8257  -11.1745    0.0000 C    0  0  0  0  0  0  0  0  0  0  0  0
   18.3048  -12.4933    0.0000 O    0  0  0  0  0  0  0  0  0  0  0  0
   19.7045  -12.7378    0.0000 C    0  0  0  0  0  0  0  0  0  0  0  0
   13.5589  -11.9780    0.0000 S    0  0  0  0  0  0  0  0  0  0  0  0
   12.8534  -13.1993    0.0000 O    0  0  0  0  0  0  0  0  0  0  0  0
   14.9419  -12.2321    0.0000 O    0  0  0  0  0  0  0  0  0  0  0  0
  1  2  1  0  0  0  0
  1  3  1  0  0  0  0
  2  4  1  0  0  0  0
  3  5  1  0  0  0  0
  4  6  1  0  0  0  0
  5  6  1  0  0  0  0
  7  8  1  0  0  0  0
  7  9  1  0  0  0  0
  8 10  1  0  0  0  0
  9 11  1  0  0  0  0
 10 12  1  0  0  0  0
 11 12  1  0  0  0  0
  8 13  1  0  0  0  0
 13 14  1  0  0  0  0
 14 15  1  0  0  0  0
 15 16  1  0  0  0  0
 16 17  1  0  0  0  0
  3 13  1  0  0  0  0
 18 19  1  0  0  0  0
 20 21  1  0  0  0  0
 20 22  1  0  0  0  0
 21 23  1  0  0  0  0
 22 24  1  0  0  0  0
 23 25  1  0  0  0  0
 24 25  1  0  0  0  0
 26 27  1  0  0  0  0
 26 28  1  0  0  0  0
 27 29  1  0  0  0  0
 28 30  1  0  0  0  0
 29 31  1  0  0  0  0
 30 31  1  0  0  0  0
 27 32  1  0  0  0  0
 32 33  1  0  0  0  0
 33 34  1  0  0  0  0
 34 35  1  0  0  0  0
 35 36  1  0  0  0  0
 22 32  1  0  0  0  0
 18 32  1  0  0  0  0
 13 18  1  0  0  0  0
 18 37  1  0  0  0  0
 37 38  2  0  0  0  0
 37 39  2  0  0  0  0
M  END
> <NMREDATA_VERSION>
1.1

> <NMREDATA_LEVEL>
0

> <NMREDATA_SOLVENT>
CD2Cl2

> <NMREDATA_TEMPERATURE>
295

> <NMREDATA_FORMULA>
C30H61ClO4P2RhS

> <NMREDATA_SMILES>
COCCP([Rh](P(C1CCCCC1)(C1CCCCC1)CCOC)(S(=O)=O)Cl)(C1CCCCC1)C1CCCCC1

> <NMREDATA_ASSIGNMENT>
Rh18, 955.00, 18

> <NMREDATA_1D_103Rh>
955.00, L=Rh18

$$$$
