
  ACD/LABS02122413462D

 31 34  0  0  0  0  0  0  0  0  1 V2000
   22.5000   -5.7138    0.0000 C    0  0  0  0  0  0  0  0  0  0  0  0
   23.8048   -5.9531    0.0000 C    0  0  0  0  0  0  0  0  0  0  0  0
   21.6438   -6.7298    0.0000 C    0  0  0  0  0  0  0  0  0  0  0  0
   24.2518   -7.1885    0.0000 C    0  0  0  0  0  0  0  0  0  0  0  0
   22.0832   -7.9699    0.0000 C    0  0  0  0  0  0  0  0  0  0  0  0
   23.3958   -8.2047    0.0000 C    0  0  0  0  0  0  0  0  0  0  0  0
   24.2681  -11.5593    0.0000 C    0  0  0  0  0  0  0  0  0  0  0  0
   23.0246  -12.0110    0.0000 C    0  0  0  0  0  0  0  0  0  0  0  0
   24.5074  -10.2545    0.0000 C    0  0  0  0  0  0  0  0  0  0  0  0
   22.0165  -11.1503    0.0000 C    0  0  0  0  0  0  0  0  0  0  0  0
   23.4912   -9.3980    0.0000 C    0  0  0  0  0  0  0  0  0  0  0  0
   22.2435   -9.8422    0.0000 C    0  0  0  0  0  0  0  0  0  0  0  0
   18.9678   -8.5817    0.0000 Rh   0  0  0  0  0  0  0  0  0  0  0  0
   20.2235   -8.1333    0.0000 C    0  0  0  0  0  0  0  0  0  0  0  0
   21.2270   -8.9859    0.0000 P    0  0  0  0  0  0  0  0  0  0  0  0
   20.3788   -9.9977    0.0000 N    0  0  0  0  0  0  0  0  0  0  0  0
   20.3792  -11.3277    0.0000 C    0  0  0  0  0  0  0  0  0  0  0  0
   21.5310  -11.9933    0.0000 C    0  0  0  0  0  0  0  0  0  0  0  0
   19.2279  -11.9923    0.0000 C    0  0  0  0  0  0  0  0  0  0  0  0
   21.5314  -13.3233    0.0000 C    0  0  0  0  0  0  0  0  0  0  0  0
   19.2285  -13.3226    0.0000 C    0  0  0  0  0  0  0  0  0  0  0  0
   20.3801  -13.9880    0.0000 C    0  0  0  0  0  0  0  0  0  0  0  0
   20.3805  -15.3180    0.0000 C    0  0  0  0  0  0  0  0  0  0  0  0
   17.9593   -7.7212    0.0000 C    0  0  0  0  0  0  0  0  0  0  0  0
   18.3558   -6.4585    0.0000 C    0  0  0  0  0  0  0  0  0  0  0  0
   16.7771   -8.3322    0.0000 C    0  0  0  0  0  0  0  0  0  0  0  0
   15.5099   -7.9276    0.0000 C    0  0  0  0  0  0  0  0  0  0  0  0
   17.7528   -5.2717    0.0000 C    0  0  0  0  0  0  0  0  0  0  0  0
   14.8988   -6.7455    0.0000 C    0  0  0  0  0  0  0  0  0  0  0  0
   16.4902   -4.8752    0.0000 C    0  0  0  0  0  0  0  0  0  0  0  0
   15.3035   -5.4785    0.0000 C    0  0  0  0  0  0  0  0  0  0  0  0
  1  2  1  0  0  0  0
  1  3  2  0  0  0  0
  2  4  2  0  0  0  0
  3  5  1  0  0  0  0
  4  6  1  0  0  0  0
  5  6  2  0  0  0  0
  7  8  1  0  0  0  0
  7  9  2  0  0  0  0
  8 10  2  0  0  0  0
  9 11  1  0  0  0  0
 10 12  1  0  0  0  0
 11 12  2  0  0  0  0
 13 14  1  0  0  0  0
 14 15  1  0  0  0  0
 15 16  2  0  0  0  0
 12 15  1  0  0  0  0
  5 15  1  0  0  0  0
 17 18  1  0  0  0  0
 17 19  2  0  0  0  0
 18 20  2  0  0  0  0
 19 21  1  0  0  0  0
 20 22  1  0  0  0  0
 21 22  2  0  0  0  0
 16 17  1  0  0  0  0
 22 23  1  0  0  0  0
 24 25  1  0  0  0  0
 24 26  1  0  0  0  0
 25 28  1  0  0  0  0
 26 27  2  0  0  0  0
 27 29  1  0  0  0  0
 28 30  2  0  0  0  0
 29 31  1  0  0  0  0
 30 31  1  0  0  0  0
 13 24  1  0  0  0  0
M  END
> <NMREDATA_VERSION>
1.1

> <NMREDATA_LEVEL>
0

> <NMREDATA_SOLVENT>
DCCl3

> <NMREDATA_TEMPERATURE>
295

> <NMREDATA_FORMULA>
C28H30NPRh

> <NMREDATA_SMILES>
Cc1ccc(cc1)N=P(c1ccccc1)(c1ccccc1)C[Rh]C1C=CCCC=CC1

> <NMREDATA_ASSIGNMENT>
Rh13, 787.00, 13

> <NMREDATA_1D_103Rh>
787.00, L=Rh13

$$$$
