
  ACD/LABS02122410472D

 20 20  0  0  0  0  0  0  0  0  2 V2000
   14.3310   -7.4730    0.0000 C    0  0  0  0  0  0  0  0  0  0  0  0
   14.9960   -8.6249    0.0000 C    0  0  0  0  0  0  0  0  0  0  0  0
   13.0010   -7.4730    0.0000 C    0  0  0  0  0  0  0  0  0  0  0  0
   14.3310   -9.7767    0.0000 C    0  0  0  0  0  0  0  0  0  0  0  0
   12.3360   -8.6249    0.0000 C    0  0  0  0  0  0  0  0  0  0  0  0
   13.0010   -9.7767    0.0000 N    0  0  0  0  0  0  0  0  0  0  0  0
   15.6610   -5.1694    0.0000 Rh   0  0  0  0  0  0  0  0  0  0  0  0
   14.9960   -4.0176    0.0000 Cl   0  0  0  0  0  0  0  0  0  0  0  0
   16.9910   -5.1694    0.0000 C    0  0  0  0  0  0  0  0  0  0  0  0
   17.6560   -6.3212    0.0000 C    0  5  0  0  0  0  0  0  0  0  0  0
   18.9860   -6.3212    0.0000 C    0  0  0  0  0  0  0  0  0  0  0  0
   18.9860   -4.9912    0.0000 C    0  0  0  0  0  0  0  0  0  0  0  0
   18.9860   -7.6512    0.0000 C    0  0  0  0  0  0  0  0  0  0  0  0
   20.3160   -6.3212    0.0000 C    0  0  0  0  0  0  0  0  0  0  0  0
   20.9810   -7.4730    0.0000 N    0  0  0  0  0  0  0  0  0  0  0  0
   22.3110   -7.4730    0.0000 C    0  0  0  0  0  0  0  0  0  0  0  0
   20.3160   -8.6249    0.0000 C    0  0  0  0  0  0  0  0  0  0  0  0
   14.9960   -6.3212    0.0000 N    0  3  0  0  0  0  0  0  0  0  0  0
   13.8441   -5.6562    0.0000 C    0  0  0  0  0  0  0  0  0  0  0  0
   16.1478   -6.9862    0.0000 C    0  0  0  0  0  0  0  0  0  0  0  0
  1  2  1  0  0  0  0
  1  3  2  0  0  0  0
  2  4  2  0  0  0  0
  3  5  1  0  0  0  0
  4  6  1  0  0  0  0
  5  6  2  0  0  0  0
  7  8  1  0  0  0  0
  7  9  1  0  0  0  0
  9 10  1  0  0  0  0
 10 11  1  0  0  0  0
 11 12  1  0  0  0  0
 11 13  1  0  0  0  0
 11 14  1  0  0  0  0
 14 15  1  0  0  0  0
 15 16  1  0  0  0  0
 15 17  1  0  0  0  0
  7 18  1  0  0  0  0
 18 19  1  0  0  0  0
 18 20  1  0  0  0  0
  1 18  1  0  0  0  0
M  END
> <NMREDATA_VERSION>
1.1

> <NMREDATA_LEVEL>
0

> <NMREDATA_SOLVENT>
CD2Cl2

> <NMREDATA_TEMPERATURE>
298

> <NMREDATA_FORMULA>
C15H29ClN3Rh

> <NMREDATA_SMILES>
CN(CC(CC[Rh](N(c1ccncc1)(C)C)Cl)(C)C)C

> <NMREDATA_ASSIGNMENT>
Rh7, 2095.00, 7

> <NMREDATA_1D_103Rh>
2095.00, L=Rh7

$$$$
