
  ACD/LABS04012415062D

 63 71  0  0  0  0  0  0  0  0  2 V2000
   15.8950   -9.8564    0.0000 C    0  0  0  0  0  0  0  0  0  0  0  0
   17.1822  -10.1799    0.0000 C    0  0  0  0  0  0  0  0  0  0  0  0
   14.9712  -10.8178    0.0000 C    0  0  0  0  0  0  0  0  0  0  0  0
   17.5623  -11.4538    0.0000 C    0  0  0  0  0  0  0  0  0  0  0  0
   15.3472  -12.0997    0.0000 C    0  0  0  0  0  0  0  0  0  0  0  0
   16.6389  -12.4155    0.0000 C    0  0  0  0  0  0  0  0  0  0  0  0
   12.3601  -10.6411    0.0000 C    0  0  0  0  0  0  0  0  0  0  0  0
   11.5786   -9.5655    0.0000 C    0  0  0  0  0  0  0  0  0  0  0  0
   11.8225  -11.8561    0.0000 C    0  0  0  0  0  0  0  0  0  0  0  0
   10.2596   -9.7049    0.0000 C    0  0  0  0  0  0  0  0  0  0  0  0
   10.4912  -11.9988    0.0000 C    0  0  0  0  0  0  0  0  0  0  0  0
    9.7098  -10.9232    0.0000 C    0  0  0  0  0  0  0  0  0  0  0  0
   13.5874  -11.8310    0.0000 C    0  0  0  0  0  0  0  0  0  0  0  0
   14.6950  -12.5727    0.0000 C    0  0  0  0  0  0  0  0  0  0  0  0
   12.4007  -12.4150    0.0000 C    0  0  0  0  0  0  0  0  0  0  0  0
   14.6033  -13.9020    0.0000 C    0  0  0  0  0  0  0  0  0  0  0  0
   12.3090  -13.7443    0.0000 C    0  0  0  0  0  0  0  0  0  0  0  0
   13.4088  -14.4814    0.0000 C    0  0  0  0  0  0  0  0  0  0  0  0
   17.7842   -7.7538    0.0000 C    0  0  0  0  0  0  0  0  0  0  0  0
   17.7848   -6.4233    0.0000 C    0  0  0  0  0  0  0  0  0  0  0  0
   18.9360   -8.4188    0.0000 C    0  0  0  0  0  0  0  0  0  0  0  0
   18.9368   -5.7575    0.0000 C    0  0  0  0  0  0  0  0  0  0  0  0
   20.0884   -7.7533    0.0000 C    0  0  0  0  0  0  0  0  0  0  0  0
   20.0886   -6.4225    0.0000 C    0  0  0  0  0  0  0  0  0  0  0  0
   11.8748   -3.8405    0.0000 C    0  0  0  0  0  0  0  0  0  0  0  0
   12.6925   -2.7970    0.0000 C    0  0  0  0  0  0  0  0  0  0  0  0
   10.5597   -3.6543    0.0000 C    0  0  0  0  0  0  0  0  0  0  0  0
   12.1986   -1.5602    0.0000 C    0  0  0  0  0  0  0  0  0  0  0  0
   10.0611   -2.4246    0.0000 C    0  0  0  0  0  0  0  0  0  0  0  0
   10.8831   -1.3738    0.0000 C    0  0  0  0  0  0  0  0  0  0  0  0
   13.7711   -9.1727    0.0000 Rh   0  0  0  0  0  0  0  0  0  0  0  0
   12.4840   -9.5047    0.0000 O    0  0  0  0  0  0  0  0  0  0  0  0
   11.5524   -8.5473    0.0000 O    0  0  0  0  0  0  0  0  0  0  0  0
    9.7377   -4.7051    0.0000 P    0  0  0  0  0  5  0  0  0  0  0  0
    8.7519   -5.5788    0.0000 C    0  0  0  0  0  0  0  0  0  0  0  0
    9.0310   -6.8867    0.0000 C    0  0  0  0  0  0  0  0  0  0  0  0
    7.4893   -5.1776    0.0000 C    0  0  0  0  0  0  0  0  0  0  0  0
    8.0363   -7.7760    0.0000 C    0  0  0  0  0  0  0  0  0  0  0  0
    6.4988   -6.0596    0.0000 C    0  0  0  0  0  0  0  0  0  0  0  0
    6.7778   -7.3668    0.0000 C    0  0  0  0  0  0  0  0  0  0  0  0
    7.4540   -2.9157    0.0000 C    0  0  0  0  0  0  0  0  0  0  0  0
    6.2215   -3.4011    0.0000 C    0  0  0  0  0  0  0  0  0  0  0  0
    7.6401   -1.5999    0.0000 C    0  0  0  0  0  0  0  0  0  0  0  0
    5.1783   -2.5840    0.0000 C    0  0  0  0  0  0  0  0  0  0  0  0
    6.6013   -0.7750    0.0000 C    0  0  0  0  0  0  0  0  0  0  0  0
    5.3640   -1.2687    0.0000 C    0  0  0  0  0  0  0  0  0  0  0  0
   15.0732   -9.4535    0.0000 N    0  0  0  0  0  0  0  0  0  0  0  0
   15.9624   -8.4622    0.0000 N    0  3  0  0  0  0  0  0  0  0  0  0
   16.8429   -7.4868    0.0000 N    0  5  0  0  0  0  0  0  0  0  0  0
   16.6330   -5.7583    0.0000 P    0  0  0  0  0  0  0  0  0  0  0  0
   13.6795  -10.5020    0.0000 P    0  0  0  0  0  0  0  0  0  0  0  0
   13.2134   -5.4935    0.0000 C    0  0  0  0  0  0  0  0  0  0  0  0
   14.4570   -5.9454    0.0000 C    0  0  0  0  0  0  0  0  0  0  0  0
   12.9825   -4.1730    0.0000 C    0  0  0  0  0  0  0  0  0  0  0  0
   15.4811   -5.0933    0.0000 C    0  0  0  0  0  0  0  0  0  0  0  0
   14.0024   -3.3282    0.0000 C    0  0  0  0  0  0  0  0  0  0  0  0
   15.2542   -3.7849    0.0000 C    0  0  0  0  0  0  0  0  0  0  0  0
   19.2935   -3.4552    0.0000 C    0  0  0  0  0  0  0  0  0  0  0  0
   18.6285   -4.6070    0.0000 C    0  0  0  0  0  0  0  0  0  0  0  0
   18.6277   -2.3033    0.0000 C    0  0  0  0  0  0  0  0  0  0  0  0
   17.2980   -4.6065    0.0000 C    0  0  0  0  0  0  0  0  0  0  0  0
   17.2972   -2.3027    0.0000 C    0  0  0  0  0  0  0  0  0  0  0  0
   16.6322   -3.4545    0.0000 C    0  0  0  0  0  0  0  0  0  0  0  0
  1  2  1  0  0  0  0
  1  3  2  0  0  0  0
  2  4  2  0  0  0  0
  3  5  1  0  0  0  0
  4  6  1  0  0  0  0
  5  6  2  0  0  0  0
  7  8  1  0  0  0  0
  7  9  2  0  0  0  0
  8 10  2  0  0  0  0
  9 11  1  0  0  0  0
 10 12  1  0  0  0  0
 11 12  2  0  0  0  0
 13 14  1  0  0  0  0
 13 15  2  0  0  0  0
 14 16  2  0  0  0  0
 15 17  1  0  0  0  0
 16 18  1  0  0  0  0
 17 18  2  0  0  0  0
 19 20  1  0  0  0  0
 19 21  2  0  0  0  0
 20 22  2  0  0  0  0
 21 23  1  0  0  0  0
 22 24  1  0  0  0  0
 23 24  2  0  0  0  0
 25 26  1  0  0  0  0
 25 27  2  0  0  0  0
 26 28  2  0  0  0  0
 27 29  1  0  0  0  0
 28 30  1  0  0  0  0
 29 30  2  0  0  0  0
 31 32  1  0  0  0  0
 32 33  2  0  0  0  0
 31 34  1  0  0  0  0
 35 36  1  0  0  0  0
 35 37  2  0  0  0  0
 36 38  2  0  0  0  0
 37 39  1  0  0  0  0
 38 40  1  0  0  0  0
 39 40  2  0  0  0  0
 34 35  1  0  0  0  0
 41 42  1  0  0  0  0
 41 43  2  0  0  0  0
 42 44  2  0  0  0  0
 43 45  1  0  0  0  0
 44 46  1  0  0  0  0
 45 46  2  0  0  0  0
 34 41  1  0  0  0  0
 27 34  1  0  0  0  0
 47 48  2  0  0  0  0
 48 49  2  0  0  0  0
 31 47  1  0  0  0  0
 31 50  1  0  0  0  0
 31 51  1  0  0  0  0
 52 53  1  0  0  0  0
 52 54  2  0  0  0  0
 53 55  2  0  0  0  0
 54 56  1  0  0  0  0
 55 57  1  0  0  0  0
 56 57  2  0  0  0  0
 50 55  1  0  0  0  0
 58 59  1  0  0  0  0
 58 60  2  0  0  0  0
 59 61  2  0  0  0  0
 60 62  1  0  0  0  0
 61 63  1  0  0  0  0
 62 63  2  0  0  0  0
 50 61  1  0  0  0  0
 20 50  1  0  0  0  0
 13 51  1  0  0  0  0
  7 51  1  0  0  0  0
  3 51  1  0  0  0  0
M  END
> <NMREDATA_VERSION>
1.1

> <NMREDATA_LEVEL>
0

> <NMREDATA_SOLVENT>
DCCl3

> <NMREDATA_TEMPERATURE>
300

> <NMREDATA_FORMULA>
C54H50N3O2P3Rh

> <NMREDATA_SMILES>
O=[O][Rh](P(c1ccccc1)(c1ccccc1)c1ccccc1)(P(c1ccccc1)(c1ccccc1)c1ccccc1)(P(c1ccccc1)(c1ccccc1)c1ccccc1)N=N=N

> <NMREDATA_ASSIGNMENT>
Rh31, 3273.00, 31

> <NMREDATA_1D_103Rh>
3273.00, L=Rh31

$$$$
