
  ACD/LABS03242411143D

 43 45  0  0  0  0  0  0  0  0  1 V2000
   18.2954   -2.4668    0.0000 O    0  0  0  0  0  0  0  0  0  0  0  0
   18.9364   -3.5769    0.0000 N    0  0  0  0  0  0  0  0  0  0  0  0
   18.2954   -4.6871    0.0000 C    0  0  0  0  0  0  0  0  0  0  0  0
   17.0135   -4.6871    0.0000 C    0  0  0  0  0  0  0  0  0  0  0  0
   18.9364   -5.7973    0.0000 C    0  0  0  0  0  0  0  0  0  0  0  0
   20.2183   -5.7973    0.0000 C    0  0  0  0  0  0  0  0  0  0  0  0
   18.2954   -6.9075    0.0000 N    0  0  0  0  0  0  0  0  0  0  0  0
   18.9364   -8.0177    0.0000 O    0  0  0  0  0  0  0  0  0  0  0  0
   12.5267  -12.4584    0.0000 O    0  0  0  0  0  0  0  0  0  0  0  0
   13.8087  -12.4584    0.0000 N    0  0  0  0  0  0  0  0  0  0  0  0
   14.4496  -11.3482    0.0000 C    0  0  0  0  0  0  0  0  0  0  0  0
   13.8087  -10.2380    0.0000 C    0  0  0  0  0  0  0  0  0  0  0  0
   15.7316  -11.3482    0.0000 C    0  0  0  0  0  0  0  0  0  0  0  0
   16.3725  -12.4584    0.0000 C    0  0  0  0  0  0  0  0  0  0  0  0
   16.3725  -10.2380    0.0000 N    0  0  0  0  0  0  0  0  0  0  0  0
   17.6544  -10.2380    0.0000 O    0  0  0  0  0  0  0  0  0  0  0  0
   18.2954   -9.1278    0.0000 Rh   0  0  0  0  0  0  0  0  0  0  0  0
   19.4056   -9.7688    0.0000 P    0  0  0  0  0  0  0  0  0  0  0  0
   20.0466   -8.6586    0.0000 O    0  0  0  0  0  0  0  0  0  0  0  0
   18.7646  -10.8790    0.0000 O    0  0  0  0  0  0  0  0  0  0  0  0
   20.5158  -10.4098    0.0000 O    0  0  0  0  0  0  0  0  0  0  0  0
   17.1852   -8.4869    0.0000 C    0  0  0  0  0  0  0  0  0  0  0  0
   17.1852   -7.2049    0.0000 C    0  0  0  0  0  0  0  0  0  0  0  0
   16.0751   -6.5639    0.0000 C    0  0  0  0  0  0  0  0  0  0  0  0
   18.2954   -6.5639    0.0000 C    0  0  0  0  0  0  0  0  0  0  0  0
   21.3285   -8.6586    0.0000 C    0  0  0  0  0  0  0  0  0  0  0  0
   21.9695   -7.5485    0.0000 C    0  0  0  0  0  0  0  0  0  0  0  0
   21.9695   -9.7689    0.0000 C    0  0  0  0  0  0  0  0  0  0  0  0
   23.2515   -7.5485    0.0000 C    0  0  0  0  0  0  0  0  0  0  0  0
   23.2514   -9.7689    0.0000 C    0  0  0  0  0  0  0  0  0  0  0  0
   23.8924   -8.6587    0.0000 C    0  0  0  0  0  0  0  0  0  0  0  0
   20.5158  -11.6917    0.0000 C    0  0  0  0  0  0  0  0  0  0  0  0
   21.6260  -12.3327    0.0000 C    0  0  0  0  0  0  0  0  0  0  0  0
   19.4055  -12.3327    0.0000 C    0  0  0  0  0  0  0  0  0  0  0  0
   21.6259  -13.6147    0.0000 C    0  0  0  0  0  0  0  0  0  0  0  0
   19.4055  -13.6146    0.0000 C    0  0  0  0  0  0  0  0  0  0  0  0
   20.5157  -14.2556    0.0000 C    0  0  0  0  0  0  0  0  0  0  0  0
   19.4056  -11.9892    0.0000 C    0  0  0  0  0  0  0  0  0  0  0  0
   20.6875  -11.9892    0.0000 C    0  0  0  0  0  0  0  0  0  0  0  0
   18.7646  -13.0994    0.0000 C    0  0  0  0  0  0  0  0  0  0  0  0
   21.3285  -13.0995    0.0000 C    0  0  0  0  0  0  0  0  0  0  0  0
   19.4056  -14.2096    0.0000 C    0  0  0  0  0  0  0  0  0  0  0  0
   20.6875  -14.2096    0.0000 C    0  0  0  0  0  0  0  0  0  0  0  0
  1  2  1  0  0  0  0
  2  3  2  0  0  0  0
  3  4  1  0  0  0  0
  3  5  1  0  0  0  0
  5  6  1  0  0  0  0
  5  7  2  0  0  0  0
  7  8  1  0  0  0  0
  9 10  1  0  0  0  0
 10 11  2  0  0  0  0
 11 12  1  0  0  0  0
 11 13  1  0  0  0  0
 13 14  1  0  0  0  0
 13 15  2  0  0  0  0
 15 16  1  0  0  0  0
 16 17  1  0  0  0  0
  8 17  1  0  0  0  0
 17 18  1  0  0  0  0
 18 19  1  0  0  0  0
 18 20  1  0  0  0  0
 18 21  1  0  0  0  0
 22 23  1  0  0  0  0
 23 24  1  0  0  0  0
 23 25  1  0  0  0  0
 17 22  1  0  0  0  0
 26 27  1  0  0  0  0
 26 28  2  0  0  0  0
 27 29  2  0  0  0  0
 28 30  1  0  0  0  0
 29 31  1  0  0  0  0
 30 31  2  0  0  0  0
 19 26  1  0  0  0  0
 32 33  1  0  0  0  0
 32 34  2  0  0  0  0
 33 35  2  0  0  0  0
 34 36  1  0  0  0  0
 35 37  1  0  0  0  0
 36 37  2  0  0  0  0
 21 32  1  0  0  0  0
 38 39  1  0  0  0  0
 38 40  2  0  0  0  0
 39 41  2  0  0  0  0
 40 42  1  0  0  0  0
 41 43  1  0  0  0  0
 42 43  2  0  0  0  0
 20 38  1  0  0  0  0
M  END
> <NMREDATA_VERSION>
1.1

> <NMREDATA_LEVEL>
0

> <NMREDATA_SOLVENT>
DCCl3

> <NMREDATA_TEMPERATURE>
298

> <NMREDATA_FORMULA>
C30H39N4O7PRh

> <NMREDATA_SMILES>
CC(C[Rh](P(Oc1ccccc1)(Oc1ccccc1)Oc1ccccc1)(O/N=C(/C(=N/O)/C)\C)O/N=C(/C(=N/O)/C)\C)C

> <NMREDATA_ASSIGNMENT>
Rh17, 1968.00, 17

> <NMREDATA_1D_103Rh>
1968.00, L=Rh17

$$$$
