
  ACD/LABS03252415552D

 35 36  0  0  0  0  0  0  0  0  1 V2000
   11.1686  -11.0938    0.0000 C    0  0  0  0  0  0  0  0  0  0  0  0
   10.5040  -12.2459    0.0000 N    0  0  0  0  0  0  0  0  0  0  0  0
   12.4888   -8.7989    0.0000 Rh   0  0  0  0  0  0  0  0  0  0  0  0
   11.1686   -8.7989    0.0000 C    0  0  0  0  0  0  0  0  0  0  0  0
   10.5040   -9.9417    0.0000 C    0  0  0  0  0  0  0  0  0  0  0  0
   10.5040   -7.6560    0.0000 C    0  0  0  0  0  0  0  0  0  0  0  0
    9.1749   -9.9417    0.0000 C    0  0  0  0  0  0  0  0  0  0  0  0
    9.1749   -7.6560    0.0000 C    0  0  0  0  0  0  0  0  0  0  0  0
    8.5100   -8.7989    0.0000 C    0  0  0  0  0  0  0  0  0  0  0  0
   11.1686   -6.5039    0.0000 C    0  0  0  0  0  0  0  0  0  0  0  0
   10.5040   -5.3519    0.0000 N    0  0  0  0  0  0  0  0  0  0  0  0
   13.8090   -6.5039    0.0000 C    0  0  0  0  0  0  0  0  0  0  0  0
   14.4736   -5.3519    0.0000 N    0  0  0  0  0  0  0  0  0  0  0  0
   13.8179   -8.7989    0.0000 C    0  0  0  0  0  0  0  0  0  0  0  0
   14.4736   -7.6560    0.0000 C    0  0  0  0  0  0  0  0  0  0  0  0
   14.4825   -9.9417    0.0000 C    0  0  0  0  0  0  0  0  0  0  0  0
   15.8027   -7.6560    0.0000 C    0  0  0  0  0  0  0  0  0  0  0  0
   15.8027   -9.9417    0.0000 C    0  0  0  0  0  0  0  0  0  0  0  0
   16.4676   -8.7989    0.0000 C    0  0  0  0  0  0  0  0  0  0  0  0
   13.8179  -11.0938    0.0000 C    0  0  0  0  0  0  0  0  0  0  0  0
   14.4825  -12.2459    0.0000 N    0  0  0  0  0  0  0  0  0  0  0  0
   12.4888  -10.1280    0.0000 Cl   0  0  0  0  0  0  0  0  0  0  0  0
   12.4888   -7.4697    0.0000 Cl   0  0  0  0  0  0  0  0  0  0  0  0
   15.8036   -5.3513    0.0000 C    0  0  0  0  0  0  0  0  0  0  0  0
   16.4682   -4.1992    0.0000 C    0  0  0  0  0  0  0  0  0  0  0  0
   16.4690   -6.5029    0.0000 C    0  0  0  0  0  0  0  0  0  0  0  0
   11.1694   -4.2003    0.0000 C    0  0  0  0  0  0  0  0  0  0  0  0
   10.5048   -3.0482    0.0000 C    0  0  0  0  0  0  0  0  0  0  0  0
   12.4994   -4.2008    0.0000 C    0  0  0  0  0  0  0  0  0  0  0  0
   13.8171  -13.3974    0.0000 C    0  0  0  0  0  0  0  0  0  0  0  0
   14.4817  -14.5496    0.0000 C    0  0  0  0  0  0  0  0  0  0  0  0
   12.4871  -13.3970    0.0000 C    0  0  0  0  0  0  0  0  0  0  0  0
    9.1740  -12.2464    0.0000 C    0  0  0  0  0  0  0  0  0  0  0  0
    8.5094  -13.3986    0.0000 C    0  0  0  0  0  0  0  0  0  0  0  0
    8.5086  -11.0948    0.0000 C    0  0  0  0  0  0  0  0  0  0  0  0
  1  2  2  0  0  0  0
  4  5  1  0  0  0  0
  4  6  2  0  0  0  0
  5  7  2  0  0  0  0
  6  8  1  0  0  0  0
  7  9  1  0  0  0  0
  8  9  2  0  0  0  0
  3  4  1  0  0  0  0
  6 10  1  0  0  0  0
 10 11  2  0  0  0  0
  1  5  1  0  0  0  0
 12 13  2  0  0  0  0
 14 15  1  0  0  0  0
 14 16  2  0  0  0  0
 15 17  2  0  0  0  0
 16 18  1  0  0  0  0
 17 19  1  0  0  0  0
 18 19  2  0  0  0  0
 16 20  1  0  0  0  0
 20 21  2  0  0  0  0
 12 15  1  0  0  0  0
  3 14  1  0  0  0  0
  3 22  1  0  0  0  0
  3 23  1  0  0  0  0
 24 25  1  0  0  0  0
 24 26  1  0  0  0  0
 13 24  1  0  0  0  0
 27 28  1  0  0  0  0
 27 29  1  0  0  0  0
 11 27  1  0  0  0  0
 30 31  1  0  0  0  0
 30 32  1  0  0  0  0
 21 30  1  0  0  0  0
 33 34  1  0  0  0  0
 33 35  1  0  0  0  0
  2 33  1  0  0  0  0
M  END
> <NMREDATA_VERSION>
1.1

> <NMREDATA_LEVEL>
0

> <NMREDATA_SOLVENT>
CD3OD

> <NMREDATA_TEMPERATURE>
298

> <NMREDATA_FORMULA>
C28H38Cl2N4Rh

> <NMREDATA_SMILES>
CC(/N=C\c1cccc(c1[Rh](c1c(cccc1/C=N\C(C)C)/C=N/C(C)C)(Cl)Cl)/C=N/C(C)C)C

> <NMREDATA_ASSIGNMENT>
Rh3, 4185.00, 3

> <NMREDATA_1D_103Rh>
4185.00, L=Rh3

$$$$
