
  ACD/LABS04032410492D

  7  6  0  0  0  0  0  0  0  0  2 V2000
   14.5018  -15.3431    0.0000 Rh   0  7  0  0  0  0  0  0  0  0  0  0
   13.1002  -14.5339    0.0000 Br   0  0  0  0  0  0  0  0  0  0  0  0
   14.5018  -13.7246    0.0000 Br   0  0  0  0  0  0  0  0  0  0  0  0
   15.9034  -14.5339    0.0000 Br   0  0  0  0  0  0  0  0  0  0  0  0
   14.5018  -16.9615    0.0000 Br   0  0  0  0  0  0  0  0  0  0  0  0
   13.1002  -16.1523    0.0000 Br   0  0  0  0  0  0  0  0  0  0  0  0
   15.9034  -16.1523    0.0000 Br   0  0  0  0  0  0  0  0  0  0  0  0
  1  2  1  0  0  0  0
  1  3  1  0  0  0  0
  1  4  1  0  0  0  0
  1  5  1  0  0  0  0
  1  6  1  0  0  0  0
  1  7  1  0  0  0  0
M  END
> <NMREDATA_VERSION>
1.1

> <NMREDATA_LEVEL>
0

> <NMREDATA_SOLVENT>
HBr (aq)

> <NMREDATA_TEMPERATURE>
313

> <NMREDATA_FORMULA>
Br6Rh

> <NMREDATA_SMILES>
Br[Rh](Br)(Br)(Br)(Br)Br

> <NMREDATA_ASSIGNMENT>
Rh1, 7077.00, 1

> <NMREDATA_1D_103Rh>
7077.00, L=Rh1

$$$$
