
  ACD/LABS02232411262D

 42 46  0  0  0  0  0  0  0  0  2 V2000
   24.8228   -7.8353    0.0000 Cl   0  0  0  0  0  0  0  0  0  0  0  0
   25.5468   -6.5899    0.0000 O    0  0  0  0  0  0  0  0  0  0  0  0
   26.0682   -8.5497    0.0000 O    0  0  0  0  0  0  0  0  0  0  0  0
   23.5774   -7.1209    0.0000 O    0  0  0  0  0  0  0  0  0  0  0  0
   24.1084   -9.0807    0.0000 O    0  5  0  0  0  0  0  0  0  0  0  0
    8.4943   -8.0829    0.0000 C    0  0  0  0  0  0  0  0  0  0  0  0
    8.4943   -9.4035    0.0000 C    0  0  0  0  0  0  0  0  0  0  0  0
    9.6462   -7.4181    0.0000 C    0  0  0  0  0  0  0  0  0  0  0  0
    9.6462  -10.0683    0.0000 C    0  0  0  0  0  0  0  0  0  0  0  0
   10.7985   -8.0829    0.0000 C    0  0  0  0  0  0  0  0  0  0  0  0
   10.7985   -9.4035    0.0000 C    0  0  0  0  0  0  0  0  0  0  0  0
   10.7985   -5.4238    0.0000 C    0  0  0  0  0  0  0  0  0  0  0  0
   10.7985   -4.0943    0.0000 C    0  0  0  0  0  0  0  0  0  0  0  0
   11.9508   -6.0886    0.0000 C    0  0  0  0  0  0  0  0  0  0  0  0
   11.9508   -3.4295    0.0000 C    0  0  0  0  0  0  0  0  0  0  0  0
   13.1031   -5.4238    0.0000 C    0  0  0  0  0  0  0  0  0  0  0  0
   13.1031   -4.0943    0.0000 C    0  0  0  0  0  0  0  0  0  0  0  0
   11.9508   -7.4181    0.0000 P    0  0  0  0  0  0  0  0  0  0  0  0
   13.1031   -8.0829    0.0000 C    0  0  0  0  0  0  0  0  0  0  0  0
   14.2464   -7.4181    0.0000 C    0  0  0  0  0  0  0  0  0  0  0  0
   19.9986   -5.4238    0.0000 C    0  0  0  0  0  0  0  0  0  0  0  0
   19.9986   -6.7534    0.0000 C    0  0  0  0  0  0  0  0  0  0  0  0
   18.8467   -4.7590    0.0000 C    0  0  0  0  0  0  0  0  0  0  0  0
   18.8467   -7.4181    0.0000 C    0  0  0  0  0  0  0  0  0  0  0  0
   17.6944   -5.4238    0.0000 C    0  0  0  0  0  0  0  0  0  0  0  0
   17.6944   -6.7534    0.0000 C    0  0  0  0  0  0  0  0  0  0  0  0
   15.8773   -3.9702    0.0000 C    0  0  0  0  0  0  0  0  0  0  0  0
   16.5421   -5.1225    0.0000 C    0  0  0  0  0  0  0  0  0  0  0  0
   14.5477   -3.9702    0.0000 C    0  0  0  0  0  0  0  0  0  0  0  0
   15.8773   -6.2748    0.0000 C    0  0  0  0  0  0  0  0  0  0  0  0
   13.8919   -5.1225    0.0000 C    0  0  0  0  0  0  0  0  0  0  0  0
   14.5477   -6.2748    0.0000 C    0  0  0  0  0  0  0  0  0  0  0  0
   13.1387  -12.0270    0.0000 C    0  0  0  0  0  0  0  0  0  0  0  0
   13.4842  -13.3123    0.0000 C    0  0  0  0  0  0  0  0  0  0  0  0
   15.9125  -12.3107    0.0000 C    0  0  0  0  0  0  0  0  0  0  0  0
   18.2085  -13.6402    0.0000 C    0  0  0  0  0  0  0  0  0  0  0  0
   18.8733  -12.4879    0.0000 C    0  0  0  0  0  0  0  0  0  0  0  0
   15.5670  -11.0253    0.0000 C    0  0  0  0  0  0  0  0  0  0  0  0
   16.5421   -9.7134    0.0000 C    0  0  0  0  0  0  0  0  0  0  0  0
   17.2068   -8.5611    0.0000 Rh   0  3  0  0  0  0  0  0  0  0  0  0
   16.5421   -7.4181    0.0000 P    0  0  0  0  0  0  0  0  0  0  0  0
   15.3898   -8.0829    0.0000 C    0  0  0  0  0  0  0  0  0  0  0  0
  1  2  2  0  0  0  0
  1  3  2  0  0  0  0
  1  4  2  0  0  0  0
  1  5  1  0  0  0  0
  6  7  1  0  0  0  0
  6  8  2  0  0  0  0
  7  9  2  0  0  0  0
  8 10  1  0  0  0  0
  9 11  1  0  0  0  0
 10 11  2  0  0  0  0
 12 13  1  0  0  0  0
 12 14  2  0  0  0  0
 13 15  2  0  0  0  0
 14 16  1  0  0  0  0
 15 17  1  0  0  0  0
 16 17  2  0  0  0  0
 14 18  1  0  0  0  0
 10 18  1  0  0  0  0
 18 19  1  0  0  0  0
 19 20  1  0  0  0  0
 21 22  1  0  0  0  0
 21 23  2  0  0  0  0
 22 24  2  0  0  0  0
 23 25  1  0  0  0  0
 24 26  1  0  0  0  0
 25 26  2  0  0  0  0
 27 28  1  0  0  0  0
 27 29  2  0  0  0  0
 28 30  2  0  0  0  0
 29 31  1  0  0  0  0
 30 32  1  0  0  0  0
 31 32  2  0  0  0  0
 33 34  2  0  0  0  0
 34 35  1  0  0  0  0
 35 36  1  0  0  0  0
 36 37  2  0  0  0  0
 37 38  1  0  0  0  0
 38 33  1  0  0  0  0
 38 39  1  0  0  0  0
 39 35  1  0  0  0  0
 40 41  1  0  0  0  0
 41 42  1  0  0  0  0
 39 40  1  0  0  0  0
 30 41  1  0  0  0  0
 26 41  1  0  0  0  0
 20 42  1  0  0  0  0
M  END
> <NMREDATA_VERSION>
1.1

> <NMREDATA_LEVEL>
0

> <NMREDATA_SOLVENT>
CD2Cl2

> <NMREDATA_TEMPERATURE>
298

> <NMREDATA_FORMULA>
C34H35ClO4P2Rh

> <NMREDATA_SMILES>
c1ccc(cc1)P(c1ccccc1)CCCP(c1ccccc1)(c1ccccc1)[Rh]C1C2C=CC1C=C2.O[Cl](=O)(=O)=O

> <NMREDATA_ASSIGNMENT>
Rh40, -264.00, 40

> <NMREDATA_1D_103Rh>
-264.00, L=Rh40

$$$$
