
  ACD/LABS04012414552D

 12 11  0  0  0  0  0  0  0  0  1 V2000
   16.6902  -10.8349    0.0000 P    0  0  0  0  0  0  0  0  0  0  0  0
   17.9201  -10.3366    0.0000 C    0  0  0  0  0  0  0  0  0  0  0  0
   15.4872  -10.2941    0.0000 C    0  0  0  0  0  0  0  0  0  0  0  0
   15.5328  -11.4568    0.0000 C    0  0  0  0  0  0  0  0  0  0  0  0
   15.8991  -13.1634    0.0000 C    0  0  0  0  0  0  0  0  0  0  0  0
   17.2218  -13.3025    0.0000 P    0  0  0  0  0  0  0  0  0  0  0  0
   18.5444  -13.4413    0.0000 C    0  0  0  0  0  0  0  0  0  0  0  0
   17.0827  -14.6252    0.0000 C    0  0  0  0  0  0  0  0  0  0  0  0
   17.3607  -11.9797    0.0000 Rh   0  0  0  0  0  0  0  0  0  0  0  0
   16.0569  -12.2510    0.0000 H    0  0  0  0  0  0  0  0  0  0  0  0
   18.5761  -12.5174    0.0000 Cl   0  0  0  0  0  0  0  0  0  0  0  0
   18.4028  -11.1683    0.0000 Cl   0  0  0  0  0  0  0  0  0  0  0  0
  1  2  1  0  0  0  0
  1  3  1  0  0  0  0
  1  4  1  0  0  0  0
  6  7  1  0  0  0  0
  6  8  1  0  0  0  0
  5  6  1  0  0  0  0
  9 10  1  0  0  0  0
  9 11  1  0  0  0  0
  9 12  1  0  0  0  0
  6  9  1  0  0  0  0
  1  9  1  0  0  0  0
M  END
> <NMREDATA_VERSION>
1.1

> <NMREDATA_LEVEL>
0

> <NMREDATA_SOLVENT>
CD2Cl2

> <NMREDATA_TEMPERATURE>
300

> <NMREDATA_FORMULA>
C6H21Cl2P2Rh

> <NMREDATA_SMILES>
CP([RhH](P(C)(C)C)(Cl)Cl)(C)C

> <NMREDATA_ASSIGNMENT>
Rh9, 892.00, 9

> <NMREDATA_1D_103Rh>
892.00, L=Rh9

$$$$
