
  ACD/LABS03132411182D

 83 94  0  0  0  0  0  0  0  0  2 V2000
   14.9756  -22.0371    0.0000 C    0  0  0  0  0  0  0  0  0  0  0  0
   13.6149  -21.9962    0.0000 C    0  0  0  0  0  0  0  0  0  0  0  0
   15.6839  -20.8837    0.0000 C    0  0  0  0  0  0  0  0  0  0  0  0
   12.9623  -20.8014    0.0000 C    0  0  0  0  0  0  0  0  0  0  0  0
   15.0313  -19.6889    0.0000 C    0  0  0  0  0  0  0  0  0  0  0  0
   13.6702  -19.6478    0.0000 C    0  0  0  0  0  0  0  0  0  0  0  0
    7.5292  -22.0378    0.0000 C    0  0  0  0  0  0  0  0  0  0  0  0
    7.6840  -23.3859    0.0000 C    0  0  0  0  0  0  0  0  0  0  0  0
    8.6198  -21.2204    0.0000 C    0  0  0  0  0  0  0  0  0  0  0  0
    8.9334  -23.9288    0.0000 C    0  0  0  0  0  0  0  0  0  0  0  0
    9.8691  -21.7632    0.0000 C    0  0  0  0  0  0  0  0  0  0  0  0
   10.0318  -23.1159    0.0000 C    0  0  0  0  0  0  0  0  0  0  0  0
    9.2608  -16.4415    0.0000 C    0  0  0  0  0  0  0  0  0  0  0  0
    8.1968  -15.5965    0.0000 C    0  0  0  0  0  0  0  0  0  0  0  0
   10.5329  -15.9278    0.0000 C    0  0  0  0  0  0  0  0  0  0  0  0
    8.3876  -14.2490    0.0000 C    0  0  0  0  0  0  0  0  0  0  0  0
   10.7236  -14.5803    0.0000 C    0  0  0  0  0  0  0  0  0  0  0  0
    9.6548  -13.7429    0.0000 C    0  0  0  0  0  0  0  0  0  0  0  0
    8.8927  -17.9692    0.0000 C    0  0  0  0  0  0  0  0  0  0  0  0
    8.5208  -19.2859    0.0000 C    0  0  0  0  0  0  0  0  0  0  0  0
    7.9463  -16.9931    0.0000 C    0  0  0  0  0  0  0  0  0  0  0  0
    7.1991  -19.6135    0.0000 C    0  0  0  0  0  0  0  0  0  0  0  0
    6.6246  -17.3207    0.0000 C    0  0  0  0  0  0  0  0  0  0  0  0
    6.2525  -18.6368    0.0000 C    0  0  0  0  0  0  0  0  0  0  0  0
   11.5968  -16.7728    0.0000 P    0  0  0  0  0  0  0  0  0  0  0  0
   12.8529  -16.2498    0.0000 C    0  0  0  0  0  0  0  0  0  0  0  0
   13.7384  -17.2959    0.0000 C    0  0  0  0  0  0  0  0  0  0  0  0
   13.0179  -18.4532    0.0000 P    0  0  0  0  0  0  0  0  0  0  0  0
   12.5005  -25.1074    0.0000 C    0  0  0  0  0  0  0  0  0  0  0  0
   13.5119  -24.1914    0.0000 C    0  0  0  0  0  0  0  0  0  0  0  0
   11.2067  -24.6960    0.0000 C    0  0  0  0  0  0  0  0  0  0  0  0
   13.2215  -22.8598    0.0000 C    0  0  0  0  0  0  0  0  0  0  0  0
   10.9163  -23.3643    0.0000 C    0  0  0  0  0  0  0  0  0  0  0  0
   11.9198  -22.4437    0.0000 C    0  0  0  0  0  0  0  0  0  0  0  0
   15.8898  -16.3671    0.0000 C    0  0  0  0  0  0  0  0  0  0  0  0
   17.0012  -17.1663    0.0000 C    0  0  0  0  0  0  0  0  0  0  0  0
   14.6478  -16.9192    0.0000 C    0  0  0  0  0  0  0  0  0  0  0  0
   16.8591  -18.5209    0.0000 C    0  0  0  0  0  0  0  0  0  0  0  0
   14.5058  -18.2739    0.0000 C    0  0  0  0  0  0  0  0  0  0  0  0
   15.6126  -19.0809    0.0000 C    0  0  0  0  0  0  0  0  0  0  0  0
    5.7166  -15.4960    0.0000 C    0  0  0  0  0  0  0  0  0  0  0  0
    4.4494  -14.9847    0.0000 C    0  0  0  0  0  0  0  0  0  0  0  0
    5.9046  -16.8418    0.0000 C    0  0  0  0  0  0  0  0  0  0  0  0
    3.3730  -15.8313    0.0000 C    0  0  0  0  0  0  0  0  0  0  0  0
    4.8407  -17.6856    0.0000 C    0  0  0  0  0  0  0  0  0  0  0  0
    3.5687  -17.1820    0.0000 C    0  0  0  0  0  0  0  0  0  0  0  0
   12.0131  -15.3248    0.0000 C    0  0  0  0  0  0  0  0  0  0  0  0
   13.3793  -15.4107    0.0000 C    0  0  0  0  0  0  0  0  0  0  0  0
   11.4150  -14.1091    0.0000 C    0  0  0  0  0  0  0  0  0  0  0  0
   14.1268  -14.2800    0.0000 C    0  0  0  0  0  0  0  0  0  0  0  0
   12.1751  -12.9747    0.0000 C    0  0  0  0  0  0  0  0  0  0  0  0
   13.5206  -13.0591    0.0000 C    0  0  0  0  0  0  0  0  0  0  0  0
   10.3709  -17.8058    0.0000 P    0  0  0  0  0  0  0  0  0  0  0  0
    9.6597  -18.9470    0.0000 C    0  0  0  0  0  0  0  0  0  0  0  0
   10.5373  -19.9886    0.0000 C    0  0  0  0  0  0  0  0  0  0  0  0
   11.7965  -19.4783    0.0000 P    0  0  0  0  0  0  0  0  0  0  0  0
   11.6943  -18.1297    0.0000 Rh   0  0  0  0  0  0  0  0  0  0  0  0
   24.2776  -21.0400    0.0000 N    0  0  0  0  0  0  0  0  0  0  0  0
   25.3536  -21.8217    0.0000 C    0  0  0  0  0  0  0  0  0  0  0  0
   23.2016  -21.8217    0.0000 N    0  0  0  0  0  0  0  0  0  0  0  0
   24.9426  -23.0866    0.0000 C    0  0  0  0  0  0  0  0  0  0  0  0
   23.6126  -23.0866    0.0000 C    0  0  0  0  0  0  0  0  0  0  0  0
   22.8309  -24.1626    0.0000 C    0  0  0  0  0  0  0  0  0  0  0  0
   26.6185  -21.4107    0.0000 C    0  0  0  0  0  0  0  0  0  0  0  0
   25.7244  -24.1626    0.0000 Cl   0  0  0  0  0  0  0  0  0  0  0  0
   24.2776  -19.7100    0.0000 B    0  5  0  0  0  0  0  0  0  0  0  0
   25.6076  -19.7100    0.0000 N    0  0  0  0  0  0  0  0  0  0  0  0
   26.3894  -18.6340    0.0000 C    0  0  0  0  0  0  0  0  0  0  0  0
   26.3894  -20.7860    0.0000 N    0  0  0  0  0  0  0  0  0  0  0  0
   27.6543  -19.0450    0.0000 C    0  0  0  0  0  0  0  0  0  0  0  0
   27.6543  -20.3750    0.0000 C    0  0  0  0  0  0  0  0  0  0  0  0
   28.7303  -21.1567    0.0000 C    0  0  0  0  0  0  0  0  0  0  0  0
   28.7303  -18.2632    0.0000 Cl   0  0  0  0  0  0  0  0  0  0  0  0
   22.9476  -19.7100    0.0000 N    0  0  0  0  0  0  0  0  0  0  0  0
   22.1659  -20.7860    0.0000 C    0  0  0  0  0  0  0  0  0  0  0  0
   22.1659  -18.6340    0.0000 N    0  0  0  0  0  0  0  0  0  0  0  0
   20.9010  -20.3750    0.0000 C    0  0  0  0  0  0  0  0  0  0  0  0
   20.9010  -19.0450    0.0000 C    0  0  0  0  0  0  0  0  0  0  0  0
   22.5769  -22.0509    0.0000 C    0  0  0  0  0  0  0  0  0  0  0  0
   19.8250  -21.1567    0.0000 Cl   0  0  0  0  0  0  0  0  0  0  0  0
   24.2776  -18.3800    0.0000 H    0  0  0  0  0  0  0  0  0  0  0  0
   19.8250  -18.2632    0.0000 C    0  0  0  0  0  0  0  0  0  0  0  0
   25.9784  -17.3691    0.0000 C    0  0  0  0  0  0  0  0  0  0  0  0
  1  2  1  0  0  0  0
  1  3  2  0  0  0  0
  2  4  2  0  0  0  0
  3  5  1  0  0  0  0
  4  6  1  0  0  0  0
  5  6  2  0  0  0  0
  7  8  1  0  0  0  0
  7  9  2  0  0  0  0
  8 10  2  0  0  0  0
  9 11  1  0  0  0  0
 10 12  1  0  0  0  0
 11 12  2  0  0  0  0
 13 14  1  0  0  0  0
 13 15  2  0  0  0  0
 14 16  2  0  0  0  0
 15 17  1  0  0  0  0
 16 18  1  0  0  0  0
 17 18  2  0  0  0  0
 19 20  1  0  0  0  0
 19 21  2  0  0  0  0
 20 22  2  0  0  0  0
 21 23  1  0  0  0  0
 22 24  1  0  0  0  0
 23 24  2  0  0  0  0
 25 26  1  0  0  0  0
 26 27  1  0  0  0  0
 27 28  1  0  0  0  0
 19 25  1  0  0  0  0
 15 25  1  0  0  0  0
 11 28  1  0  0  0  0
  6 28  1  0  0  0  0
 29 30  1  0  0  0  0
 29 31  2  0  0  0  0
 30 32  2  0  0  0  0
 31 33  1  0  0  0  0
 32 34  1  0  0  0  0
 33 34  2  0  0  0  0
 35 36  1  0  0  0  0
 35 37  2  0  0  0  0
 36 38  2  0  0  0  0
 37 39  1  0  0  0  0
 38 40  1  0  0  0  0
 39 40  2  0  0  0  0
 41 42  1  0  0  0  0
 41 43  2  0  0  0  0
 42 44  2  0  0  0  0
 43 45  1  0  0  0  0
 44 46  1  0  0  0  0
 45 46  2  0  0  0  0
 47 48  1  0  0  0  0
 47 49  2  0  0  0  0
 48 50  2  0  0  0  0
 49 51  1  0  0  0  0
 50 52  1  0  0  0  0
 51 52  2  0  0  0  0
 53 54  1  0  0  0  0
 54 55  1  0  0  0  0
 55 56  1  0  0  0  0
 47 53  1  0  0  0  0
 43 53  1  0  0  0  0
 39 56  1  0  0  0  0
 34 56  1  0  0  0  0
 53 57  1  0  0  0  0
 25 57  1  0  0  0  0
 28 57  1  0  0  0  0
 56 57  1  0  0  0  0
 58 59  1  0  0  0  0
 58 60  1  0  0  0  0
 59 61  2  0  0  0  0
 60 62  2  0  0  0  0
 61 62  1  0  0  0  0
 62 63  1  0  0  0  0
 59 64  1  0  0  0  0
 61 65  1  0  0  0  0
 67 68  1  0  0  0  0
 67 69  1  0  0  0  0
 68 70  2  0  0  0  0
 69 71  2  0  0  0  0
 70 71  1  0  0  0  0
 66 67  1  0  0  0  0
 71 72  1  0  0  0  0
 70 73  1  0  0  0  0
 74 75  1  0  0  0  0
 74 76  1  0  0  0  0
 75 77  2  0  0  0  0
 76 78  2  0  0  0  0
 77 78  1  0  0  0  0
 75 79  1  0  0  0  0
 77 80  1  0  0  0  0
 74 66  1  0  0  0  0
 58 66  1  0  0  0  0
 66 81  1  0  0  0  0
 78 82  1  0  0  0  0
 68 83  1  0  0  0  0
M  END
> <NMREDATA_VERSION>
1.1

> <NMREDATA_LEVEL>
0

> <NMREDATA_SOLVENT>
CD2Cl2

> <NMREDATA_TEMPERATURE>
298

> <NMREDATA_FORMULA>
C67H71BCl3N6P4Rh

> <NMREDATA_SMILES>
c1ccc(cc1)P1(CCP([Rh]21P(CCP2(c1ccccc1)c1ccccc1)(c1ccccc1)c1ccccc1)(c1ccccc1)c1ccccc1)c1ccccc1.Cc1nn(c(c1Cl)C)[BH](n1nc(c(c1C)Cl)C)n1nc(c(c1C)Cl)C

> <NMREDATA_ASSIGNMENT>
Rh57, 1225.00, 57

> <NMREDATA_1D_103Rh>
1225.00, L=Rh57

$$$$
