
  ACD/LABS03212412412D

 44 47  0  0  0  0  0  0  0  0  1 V2000
   19.1984  -15.6332    0.0000 N    0  0  0  0  0  0  0  0  0  0  0  0
   19.8632  -16.7847    0.0000 C    0  0  0  0  0  0  0  0  0  0  0  0
   19.2133  -17.9278    0.0000 C    0  0  0  0  0  0  0  0  0  0  0  0
   21.1940  -16.7843    0.0000 C    0  0  0  0  0  0  0  0  0  0  0  0
   21.8595  -15.6322    0.0000 C    0  0  0  0  0  0  0  0  0  0  0  0
   21.8590  -17.9361    0.0000 N    0  0  0  0  0  0  0  0  0  0  0  0
   17.8835  -15.6245    0.0000 O    0  0  0  0  0  0  0  0  0  0  0  0
   23.1893  -17.9355    0.0000 O    0  0  0  0  0  0  0  0  0  0  0  0
   17.2083  -12.1862    0.0000 N    0  0  0  0  0  0  0  0  0  0  0  0
   16.5433  -11.0344    0.0000 C    0  0  0  0  0  0  0  0  0  0  0  0
   15.2211  -11.0303    0.0000 C    0  0  0  0  0  0  0  0  0  0  0  0
   17.2093   -9.8825    0.0000 C    0  0  0  0  0  0  0  0  0  0  0  0
   18.5352   -9.8744    0.0000 C    0  0  0  0  0  0  0  0  0  0  0  0
   16.5443   -8.7307    0.0000 N    0  0  0  0  0  0  0  0  0  0  0  0
   16.5509  -13.3336    0.0000 O    0  0  0  0  0  0  0  0  0  0  0  0
   17.2054   -7.5711    0.0000 O    0  0  0  0  0  0  0  0  0  0  0  0
   13.5047  -12.0826    0.0000 C    0  0  0  0  0  0  0  0  0  0  0  0
   14.8176  -11.8567    0.0000 C    0  0  0  0  0  0  0  0  0  0  0  0
   13.0472  -13.3293    0.0000 C    0  0  0  0  0  0  0  0  0  0  0  0
   15.6734  -12.8781    0.0000 C    0  0  0  0  0  0  0  0  0  0  0  0
   13.9027  -14.3504    0.0000 C    0  0  0  0  0  0  0  0  0  0  0  0
   15.2162  -14.1246    0.0000 C    0  0  0  0  0  0  0  0  0  0  0  0
   16.1235  -18.6576    0.0000 C    0  0  0  0  0  0  0  0  0  0  0  0
   15.6670  -17.4061    0.0000 C    0  0  0  0  0  0  0  0  0  0  0  0
   17.4319  -18.8847    0.0000 C    0  0  0  0  0  0  0  0  0  0  0  0
   16.5192  -16.3815    0.0000 C    0  0  0  0  0  0  0  0  0  0  0  0
   18.2840  -17.8606    0.0000 C    0  0  0  0  0  0  0  0  0  0  0  0
   17.8273  -16.6088    0.0000 C    0  0  0  0  0  0  0  0  0  0  0  0
   13.7604  -15.1495    0.0000 C    0  0  0  0  0  0  0  0  0  0  0  0
   14.9080  -15.8072    0.0000 C    0  0  0  0  0  0  0  0  0  0  0  0
   12.6085  -15.8145    0.0000 C    0  0  0  0  0  0  0  0  0  0  0  0
   14.9115  -17.1254    0.0000 C    0  0  0  0  0  0  0  0  0  0  0  0
   12.6121  -17.1327    0.0000 C    0  0  0  0  0  0  0  0  0  0  0  0
   13.7597  -17.7904    0.0000 C    0  0  0  0  0  0  0  0  0  0  0  0
   22.9616  -11.1574    0.0000 C    0  0  0  0  0  0  0  0  0  0  0  0
   22.9651  -12.4756    0.0000 C    0  0  0  0  0  0  0  0  0  0  0  0
   21.8140  -10.4997    0.0000 C    0  0  0  0  0  0  0  0  0  0  0  0
   21.8133  -13.1406    0.0000 C    0  0  0  0  0  0  0  0  0  0  0  0
   20.6622  -11.1647    0.0000 C    0  0  0  0  0  0  0  0  0  0  0  0
   20.6657  -12.4829    0.0000 C    0  0  0  0  0  0  0  0  0  0  0  0
   17.2113  -14.4773    0.0000 Rh   0  0  0  0  0  0  0  0  0  0  0  0
   18.3624  -13.8127    0.0000 C    0  0  0  0  0  0  0  0  0  0  0  0
   19.5142  -13.1477    0.0000 C    0  0  0  0  0  0  0  0  0  0  0  0
   16.0594  -15.1423    0.0000 P    0  0  0  0  0  0  0  0  0  0  0  0
  1  2  2  0  0  0  0
  2  3  1  0  0  0  0
  2  4  1  0  0  0  0
  4  5  1  0  0  0  0
  4  6  2  0  0  0  0
  1  7  1  0  0  0  0
  6  8  1  0  0  0  0
  9 10  2  0  0  0  0
 10 11  1  0  0  0  0
 10 12  1  0  0  0  0
 12 13  1  0  0  0  0
 12 14  2  0  0  0  0
  9 15  1  0  0  0  0
 14 16  1  0  0  0  0
 17 18  1  0  0  0  0
 17 19  2  0  0  0  0
 18 20  2  0  0  0  0
 19 21  1  0  0  0  0
 20 22  1  0  0  0  0
 21 22  2  0  0  0  0
 23 24  1  0  0  0  0
 23 25  2  0  0  0  0
 24 26  2  0  0  0  0
 25 27  1  0  0  0  0
 26 28  1  0  0  0  0
 27 28  2  0  0  0  0
 29 30  1  0  0  0  0
 29 31  2  0  0  0  0
 30 32  2  0  0  0  0
 31 33  1  0  0  0  0
 32 34  1  0  0  0  0
 33 34  2  0  0  0  0
 35 36  1  0  0  0  0
 35 37  2  0  0  0  0
 36 38  2  0  0  0  0
 37 39  1  0  0  0  0
 38 40  1  0  0  0  0
 39 40  2  0  0  0  0
 41 42  1  0  0  0  0
 42 43  3  0  0  0  0
 40 43  1  0  0  0  0
 41 44  1  0  0  0  0
 30 44  1  0  0  0  0
 26 44  1  0  0  0  0
 22 44  1  0  0  0  0
 15 41  1  0  0  0  0
  7 41  1  0  0  0  0
M  END
> <NMREDATA_VERSION>
1.1

> <NMREDATA_LEVEL>
0

> <NMREDATA_SOLVENT>
DCCl3

> <NMREDATA_TEMPERATURE>
298

> <NMREDATA_FORMULA>
C34H35N4O4PRh

> <NMREDATA_SMILES>
O/N=C(/C(=N/O[Rh](P(c1ccccc1)(c1ccccc1)c1ccccc1)(C#Cc1ccccc1)O/N=C(/C(=N/O)/C)\C)/C)\C

> <NMREDATA_ASSIGNMENT>
Rh41, 2265.00, 41

> <NMREDATA_1D_103Rh>
2265.00, L=Rh41

$$$$
