
  ACD/LABS03222419122D

 40 42  0  0  0  0  0  0  0  0  1 V2000
   22.7679   -9.5563    0.0000 C    0  0  0  0  0  0  0  0  0  0  0  0
   22.7679  -10.8383    0.0000 C    0  0  0  0  0  0  0  0  0  0  0  0
   21.6577   -8.9154    0.0000 C    0  0  0  0  0  0  0  0  0  0  0  0
   21.6577  -11.4792    0.0000 C    0  0  0  0  0  0  0  0  0  0  0  0
   20.5475   -9.5563    0.0000 C    0  0  0  0  0  0  0  0  0  0  0  0
   20.5475  -10.8383    0.0000 C    0  0  0  0  0  0  0  0  0  0  0  0
   11.6660   -8.2744    0.0000 O    0  0  0  0  0  0  0  0  0  0  0  0
   12.7762   -7.6334    0.0000 N    0  0  0  0  0  0  0  0  0  0  0  0
   13.8864   -8.2744    0.0000 C    0  0  0  0  0  0  0  0  0  0  0  0
   13.8864   -9.5563    0.0000 C    0  0  0  0  0  0  0  0  0  0  0  0
   14.9966   -7.6334    0.0000 C    0  0  0  0  0  0  0  0  0  0  0  0
   14.9966   -6.3515    0.0000 C    0  0  0  0  0  0  0  0  0  0  0  0
   16.1068   -8.2744    0.0000 N    0  0  0  0  0  0  0  0  0  0  0  0
   17.2169   -7.6334    0.0000 O    0  0  0  0  0  0  0  0  0  0  0  0
   12.5585   -9.3846    0.0000 O    0  0  0  0  0  0  0  0  0  0  0  0
   13.8404   -9.3846    0.0000 N    0  0  0  0  0  0  0  0  0  0  0  0
   14.4813  -10.4948    0.0000 C    0  0  0  0  0  0  0  0  0  0  0  0
   13.8404  -11.6050    0.0000 C    0  0  0  0  0  0  0  0  0  0  0  0
   15.7633  -10.4948    0.0000 C    0  0  0  0  0  0  0  0  0  0  0  0
   16.4042  -11.6050    0.0000 C    0  0  0  0  0  0  0  0  0  0  0  0
   16.4042   -9.3846    0.0000 N    0  0  0  0  0  0  0  0  0  0  0  0
   17.6862   -9.3846    0.0000 O    0  0  0  0  0  0  0  0  0  0  0  0
   18.3271   -8.2744    0.0000 Rh   0  0  0  0  0  0  0  0  0  0  0  0
   19.4373   -8.9154    0.0000 P    0  0  0  0  0  0  0  0  0  0  0  0
   18.7964  -10.0256    0.0000 C    0  0  0  0  0  0  0  0  0  0  0  0
   19.4373  -11.1357    0.0000 C    0  0  0  0  0  0  0  0  0  0  0  0
   17.5144  -10.0256    0.0000 C    0  0  0  0  0  0  0  0  0  0  0  0
   18.7964  -12.2459    0.0000 C    0  0  0  0  0  0  0  0  0  0  0  0
   16.8735  -11.1357    0.0000 C    0  0  0  0  0  0  0  0  0  0  0  0
   17.5144  -12.2459    0.0000 C    0  0  0  0  0  0  0  0  0  0  0  0
   20.0783   -7.8052    0.0000 C    0  0  0  0  0  0  0  0  0  0  0  0
   19.4373   -6.6950    0.0000 C    0  0  0  0  0  0  0  0  0  0  0  0
   21.3602   -7.8052    0.0000 C    0  0  0  0  0  0  0  0  0  0  0  0
   20.0783   -5.5848    0.0000 C    0  0  0  0  0  0  0  0  0  0  0  0
   22.0012   -6.6950    0.0000 C    0  0  0  0  0  0  0  0  0  0  0  0
   21.3602   -5.5848    0.0000 C    0  0  0  0  0  0  0  0  0  0  0  0
   18.9681   -7.1642    0.0000 C    0  0  0  0  0  0  0  0  0  0  0  0
   18.3271   -6.0540    0.0000 C    0  0  0  0  0  0  0  0  0  0  0  0
   18.9681   -4.9439    0.0000 C    0  0  0  0  0  0  0  0  0  0  0  0
   18.3271   -3.8337    0.0000 C    0  0  0  0  0  0  0  0  0  0  0  0
  1  2  1  0  0  0  0
  1  3  2  0  0  0  0
  2  4  2  0  0  0  0
  3  5  1  0  0  0  0
  4  6  1  0  0  0  0
  5  6  2  0  0  0  0
  7  8  1  0  0  0  0
  8  9  2  0  0  0  0
  9 10  1  0  0  0  0
  9 11  1  0  0  0  0
 11 12  1  0  0  0  0
 11 13  2  0  0  0  0
 13 14  1  0  0  0  0
 15 16  1  0  0  0  0
 16 17  2  0  0  0  0
 17 18  1  0  0  0  0
 17 19  1  0  0  0  0
 19 20  1  0  0  0  0
 19 21  2  0  0  0  0
 21 22  1  0  0  0  0
 22 23  1  0  0  0  0
 14 23  1  0  0  0  0
 23 24  1  0  0  0  0
 25 26  1  0  0  0  0
 25 27  2  0  0  0  0
 26 28  2  0  0  0  0
 27 29  1  0  0  0  0
 28 30  1  0  0  0  0
 29 30  2  0  0  0  0
 24 25  1  0  0  0  0
 31 32  1  0  0  0  0
 31 33  2  0  0  0  0
 32 34  2  0  0  0  0
 33 35  1  0  0  0  0
 34 36  1  0  0  0  0
 35 36  2  0  0  0  0
 24 31  1  0  0  0  0
  5 24  1  0  0  0  0
 23 37  1  0  0  0  0
 37 38  1  0  0  0  0
 38 39  1  0  0  0  0
 39 40  1  0  0  0  0
M  END
> <NMREDATA_VERSION>
1.1

> <NMREDATA_LEVEL>
0

> <NMREDATA_SOLVENT>
DCCl3

> <NMREDATA_TEMPERATURE>
298

> <NMREDATA_FORMULA>
C30H39N4O4PRh

> <NMREDATA_SMILES>
CCCC[Rh](P(c1ccccc1)(c1ccccc1)c1ccccc1)(O/N=C(/C(=N/O)/C)\C)O/N=C(/C(=N/O)/C)\C

> <NMREDATA_ASSIGNMENT>
Rh23, 2048.00, 23

> <NMREDATA_1D_103Rh>
2048.00, L=Rh23

$$$$
