
  ACD/LABS02122411322D

 20 20  0  0  0  0  0  0  0  0  1 V2000
   17.3487  -10.0672    0.0000 C    0  0  0  0  0  0  0  0  0  0  0  0
   18.3231   -9.1722    0.0000 C    0  0  0  0  0  0  0  0  0  0  0  0
   17.2865  -11.3967    0.0000 C    0  0  0  0  0  0  0  0  0  0  0  0
   18.1726  -12.3802    0.0000 C    0  0  0  0  0  0  0  0  0  0  0  0
   19.6526   -9.2341    0.0000 C    0  0  0  0  0  0  0  0  0  0  0  0
   19.5019  -12.4424    0.0000 C    0  0  0  0  0  0  0  0  0  0  0  0
   20.5476  -10.2179    0.0000 C    0  0  0  0  0  0  0  0  0  0  0  0
   20.4857  -11.5472    0.0000 C    0  0  0  0  0  0  0  0  0  0  0  0
   17.8802   -7.9317    0.0000 Rh   0  0  0  0  0  0  0  0  0  0  0  0
   19.0234   -7.2670    0.0000 C    0  0  0  0  0  0  0  0  0  0  0  0
   16.7372   -7.2670    0.0000 P    0  0  0  0  0  0  0  0  0  0  0  0
   16.0725   -8.4191    0.0000 N    0  0  0  0  0  0  0  0  0  0  0  0
   16.7372   -9.5621    0.0000 C    0  0  0  0  0  0  0  0  0  0  0  0
   14.7432   -8.4191    0.0000 C    0  0  0  0  0  0  0  0  0  0  0  0
   17.4017   -6.1149    0.0000 N    0  0  0  0  0  0  0  0  0  0  0  0
   15.5851   -6.6025    0.0000 N    0  0  0  0  0  0  0  0  0  0  0  0
   18.7221   -6.1149    0.0000 C    0  0  0  0  0  0  0  0  0  0  0  0
   16.7372   -4.9628    0.0000 C    0  0  0  0  0  0  0  0  0  0  0  0
   14.4330   -7.2670    0.0000 C    0  0  0  0  0  0  0  0  0  0  0  0
   15.5851   -5.2732    0.0000 C    0  0  0  0  0  0  0  0  0  0  0  0
  1  2  1  0  0  0  0
  1  3  1  0  0  0  0
  2  5  1  0  0  0  0
  3  4  2  0  0  0  0
  4  6  1  0  0  0  0
  5  7  2  0  0  0  0
  6  8  1  0  0  0  0
  7  8  1  0  0  0  0
  9 10  1  0  0  0  0
  2  9  1  0  0  0  0
  9 11  1  0  0  0  0
 11 12  1  0  0  0  0
 12 13  1  0  0  0  0
 12 14  1  0  0  0  0
 11 15  1  0  0  0  0
 11 16  1  0  0  0  0
 15 17  1  0  0  0  0
 15 18  1  0  0  0  0
 16 19  1  0  0  0  0
 16 20  1  0  0  0  0
M  END
> <NMREDATA_VERSION>
1.1

> <NMREDATA_LEVEL>
0

> <NMREDATA_SOLVENT>
C6D6

> <NMREDATA_TEMPERATURE>
298

> <NMREDATA_FORMULA>
C15H33N3PRh

> <NMREDATA_SMILES>
CN(P([Rh](C1C=CCCC=CC1)C)(N(C)C)N(C)C)C

> <NMREDATA_ASSIGNMENT>
Rh9, 165.00, 9

> <NMREDATA_1D_103Rh>
165.00, L=Rh9

$$$$
