
  ACD/LABS03282419392D

 68 77  0  0  0  0  0  0  0  0  1 V2000
   13.2043  -21.2972    0.0000 C    0  0  0  0  0  0  0  0  0  0  0  0
   12.5385  -22.4491    0.0000 C    0  0  0  0  0  0  0  0  0  0  0  0
   14.5343  -21.2968    0.0000 C    0  0  0  0  0  0  0  0  0  0  0  0
   13.2034  -23.6007    0.0000 C    0  0  0  0  0  0  0  0  0  0  0  0
   15.1992  -22.4484    0.0000 C    0  0  0  0  0  0  0  0  0  0  0  0
   14.5339  -23.6000    0.0000 C    0  0  0  0  0  0  0  0  0  0  0  0
   17.5034  -20.1454    0.0000 C    0  0  0  0  0  0  0  0  0  0  0  0
   16.3518  -20.8103    0.0000 C    0  0  0  0  0  0  0  0  0  0  0  0
   18.6552  -20.8112    0.0000 C    0  0  0  0  0  0  0  0  0  0  0  0
   16.3524  -22.1407    0.0000 C    0  0  0  0  0  0  0  0  0  0  0  0
   18.6557  -22.1412    0.0000 C    0  0  0  0  0  0  0  0  0  0  0  0
   17.5040  -22.8061    0.0000 C    0  0  0  0  0  0  0  0  0  0  0  0
   11.7495  -19.4862    0.0000 C    0  0  0  0  0  0  0  0  0  0  0  0
   12.9011  -20.1516    0.0000 C    0  0  0  0  0  0  0  0  0  0  0  0
   11.7488  -18.1558    0.0000 C    0  0  0  0  0  0  0  0  0  0  0  0
   14.0527  -19.4867    0.0000 C    0  0  0  0  0  0  0  0  0  0  0  0
   12.9004  -17.4909    0.0000 C    0  0  0  0  0  0  0  0  0  0  0  0
   14.0523  -18.1567    0.0000 C    0  0  0  0  0  0  0  0  0  0  0  0
   22.2409  -15.9776    0.0000 C    0  0  0  0  0  0  0  0  0  0  0  0
   23.0924  -14.9536    0.0000 C    0  0  0  0  0  0  0  0  0  0  0  0
   20.9324  -15.7503    0.0000 C    0  0  0  0  0  0  0  0  0  0  0  0
   22.6408  -13.7097    0.0000 C    0  0  0  0  0  0  0  0  0  0  0  0
   20.4759  -14.4992    0.0000 N    0  0  0  0  0  0  0  0  0  0  0  0
   21.3278  -13.4749    0.0000 C    0  0  0  0  0  0  0  0  0  0  0  0
   14.3996  -14.6097    0.0000 C    0  0  0  0  0  0  0  0  0  0  0  0
   13.9432  -13.3586    0.0000 C    0  0  0  0  0  0  0  0  0  0  0  0
   15.7031  -14.8293    0.0000 C    0  0  0  0  0  0  0  0  0  0  0  0
   14.7875  -12.3387    0.0000 C    0  0  0  0  0  0  0  0  0  0  0  0
   16.5516  -13.8176    0.0000 C    0  0  0  0  0  0  0  0  0  0  0  0
   16.0952  -12.5665    0.0000 C    0  0  0  0  0  0  0  0  0  0  0  0
   17.0627  -11.8847    0.0000 C    0  0  0  0  0  0  0  0  0  0  0  0
   17.2979  -10.5722    0.0000 C    0  0  0  0  0  0  0  0  0  0  0  0
   18.0870  -12.7366    0.0000 C    0  0  0  0  0  0  0  0  0  0  0  0
   18.5414  -10.1201    0.0000 C    0  0  0  0  0  0  0  0  0  0  0  0
   19.3335  -12.2722    0.0000 C    0  0  0  0  0  0  0  0  0  0  0  0
   19.5657  -10.9720    0.0000 C    0  0  0  0  0  0  0  0  0  0  0  0
   16.3892  -15.8044    0.0000 C    0  0  0  0  0  0  0  0  0  0  0  0
   16.1617  -17.1125    0.0000 C    0  0  0  0  0  0  0  0  0  0  0  0
   17.6280  -15.3450    0.0000 C    0  0  0  0  0  0  0  0  0  0  0  0
   17.1784  -17.9688    0.0000 C    0  0  0  0  0  0  0  0  0  0  0  0
   18.6442  -16.2016    0.0000 C    0  0  0  0  0  0  0  0  0  0  0  0
   18.4171  -17.5095    0.0000 C    0  0  0  0  0  0  0  0  0  0  0  0
   16.4321   -7.4590    0.0000 C    0  0  0  0  0  0  0  0  0  0  0  0
   15.1014   -7.4593    0.0000 C    0  0  0  0  0  0  0  0  0  0  0  0
   17.0972   -6.3070    0.0000 C    0  0  0  0  0  0  0  0  0  0  0  0
   14.4368   -6.3081    0.0000 C    0  0  0  0  0  0  0  0  0  0  0  0
   16.4326   -5.1558    0.0000 C    0  0  0  0  0  0  0  0  0  0  0  0
   15.1026   -5.1563    0.0000 C    0  0  0  0  0  0  0  0  0  0  0  0
   19.4002   -8.6111    0.0000 C    0  0  0  0  0  0  0  0  0  0  0  0
   18.2479   -7.9456    0.0000 C    0  0  0  0  0  0  0  0  0  0  0  0
   20.5514   -7.9465    0.0000 C    0  0  0  0  0  0  0  0  0  0  0  0
   18.2480   -6.6153    0.0000 C    0  0  0  0  0  0  0  0  0  0  0  0
   20.5512   -6.6158    0.0000 C    0  0  0  0  0  0  0  0  0  0  0  0
   19.3991   -5.9507    0.0000 C    0  0  0  0  0  0  0  0  0  0  0  0
   13.6419   -9.2746    0.0000 C    0  0  0  0  0  0  0  0  0  0  0  0
   14.7935   -8.6097    0.0000 C    0  0  0  0  0  0  0  0  0  0  0  0
   13.6504  -10.6000    0.0000 C    0  0  0  0  0  0  0  0  0  0  0  0
   15.9451   -9.2751    0.0000 C    0  0  0  0  0  0  0  0  0  0  0  0
   14.7942  -11.2704    0.0000 C    0  0  0  0  0  0  0  0  0  0  0  0
   15.9458  -10.6056    0.0000 C    0  0  0  0  0  0  0  0  0  0  0  0
   19.1678  -14.2716    0.0000 Rh   0  0  0  0  0  0  0  0  0  0  0  0
   19.6198  -15.5152    0.0000 H    0  0  0  0  0  0  0  0  0  0  0  0
   20.0199  -13.2477    0.0000 H    0  0  0  0  0  0  0  0  0  0  0  0
   17.8548  -14.0367    0.0000 P    0  0  0  0  0  0  0  0  0  0  0  0
   17.0968   -8.6102    0.0000 P    0  0  0  0  0  0  0  0  0  0  0  0
   17.3154  -16.4875    0.0000 N    0  0  0  0  0  0  0  0  0  0  0  0
   15.8657  -18.9926    0.0000 C    0  0  0  0  0  0  0  0  0  0  0  0
   15.2002  -20.1449    0.0000 B    0  0  0  0  0  0  0  0  0  0  0  0
  1  2  1  0  0  0  0
  1  3  2  0  0  0  0
  2  4  2  0  0  0  0
  3  5  1  0  0  0  0
  4  6  1  0  0  0  0
  5  6  2  0  0  0  0
  7  8  1  0  0  0  0
  7  9  2  0  0  0  0
  8 10  2  0  0  0  0
  9 11  1  0  0  0  0
 10 12  1  0  0  0  0
 11 12  2  0  0  0  0
 13 14  1  0  0  0  0
 13 15  2  0  0  0  0
 14 16  2  0  0  0  0
 15 17  1  0  0  0  0
 16 18  1  0  0  0  0
 17 18  2  0  0  0  0
 19 20  1  0  0  0  0
 19 21  2  0  0  0  0
 20 22  2  0  0  0  0
 21 23  1  0  0  0  0
 22 24  1  0  0  0  0
 23 24  2  0  0  0  0
 25 26  1  0  0  0  0
 25 27  2  0  0  0  0
 26 28  2  0  0  0  0
 27 29  1  0  0  0  0
 28 30  1  0  0  0  0
 29 30  2  0  0  0  0
 31 32  1  0  0  0  0
 31 33  2  0  0  0  0
 32 34  2  0  0  0  0
 33 35  1  0  0  0  0
 34 36  1  0  0  0  0
 35 36  2  0  0  0  0
 37 38  1  0  0  0  0
 37 39  2  0  0  0  0
 38 40  2  0  0  0  0
 39 41  1  0  0  0  0
 40 42  1  0  0  0  0
 41 42  2  0  0  0  0
 43 44  1  0  0  0  0
 43 45  2  0  0  0  0
 44 46  2  0  0  0  0
 45 47  1  0  0  0  0
 46 48  1  0  0  0  0
 47 48  2  0  0  0  0
 49 50  1  0  0  0  0
 49 51  2  0  0  0  0
 50 52  2  0  0  0  0
 51 53  1  0  0  0  0
 52 54  1  0  0  0  0
 53 54  2  0  0  0  0
 55 56  1  0  0  0  0
 55 57  2  0  0  0  0
 56 58  2  0  0  0  0
 57 59  1  0  0  0  0
 58 60  1  0  0  0  0
 59 60  2  0  0  0  0
 61 62  1  0  0  0  0
 61 63  1  0  0  0  0
 61 64  1  0  0  0  0
 61 65  1  0  0  0  0
 58 65  1  0  0  0  0
 50 65  1  0  0  0  0
 43 65  1  0  0  0  0
 39 64  1  0  0  0  0
 33 64  1  0  0  0  0
 29 64  1  0  0  0  0
 23 61  1  0  0  0  0
 66 67  3  0  0  0  0
 61 66  1  0  0  0  0
 67 68  1  0  0  0  0
 16 68  1  0  0  0  0
  8 68  1  0  0  0  0
  3 68  1  0  0  0  0
M  END
> <NMREDATA_VERSION>
1.1

> <NMREDATA_LEVEL>
0

> <NMREDATA_SOLVENT>
toluene-d8

> <NMREDATA_TEMPERATURE>
300

> <NMREDATA_FORMULA>
C60H56BN2P2Rh

> <NMREDATA_SMILES>
c1ccc(cc1)[B](c1ccccc1)(c1ccccc1)C#N[RhH2](P(c1ccccc1)(c1ccccc1)c1ccccc1)(P(c1ccccc1)(c1ccccc1)c1ccccc1)N1=CC=CC=C1

> <NMREDATA_ASSIGNMENT>
Rh61, 441.00, 61

> <NMREDATA_1D_103Rh>
441.00, L=Rh61

$$$$
