
  ACD/LABS04012414542D

 46 49  0  0  0  0  0  0  0  0  1 V2000
   14.7815  -10.5700    0.0000 C    0  0  0  0  0  0  0  0  0  0  0  0
   15.6800   -9.5904    0.0000 C    0  0  0  0  0  0  0  0  0  0  0  0
   15.2658   -8.3240    0.0000 O    0  0  0  0  0  0  0  0  0  0  0  0
   13.9816   -8.0315    0.0000 C    0  0  0  0  0  0  0  0  0  0  0  0
   14.7181  -11.8971    0.0000 P    0  0  0  0  0  0  0  0  0  0  0  0
   13.5732  -11.2267    0.0000 C    0  0  0  0  0  0  0  0  0  0  0  0
   13.5849   -9.8988    0.0000 C    0  0  0  0  0  0  0  0  0  0  0  0
   12.4169  -11.8840    0.0000 C    0  0  0  0  0  0  0  0  0  0  0  0
   12.4280   -9.2255    0.0000 C    0  0  0  0  0  0  0  0  0  0  0  0
   11.2720  -11.2136    0.0000 C    0  0  0  0  0  0  0  0  0  0  0  0
   11.2762   -9.8905    0.0000 C    0  0  0  0  0  0  0  0  0  0  0  0
   14.5783  -13.2160    0.0000 C    0  0  0  0  0  0  0  0  0  0  0  0
   15.6544  -13.9978    0.0000 C    0  0  0  0  0  0  0  0  0  0  0  0
   13.3632  -13.7537    0.0000 C    0  0  0  0  0  0  0  0  0  0  0  0
   15.5151  -15.3175    0.0000 C    0  0  0  0  0  0  0  0  0  0  0  0
   13.2239  -15.0734    0.0000 C    0  0  0  0  0  0  0  0  0  0  0  0
   14.3000  -15.8552    0.0000 C    0  0  0  0  0  0  0  0  0  0  0  0
   13.7264  -12.7871    0.0000 C    0  0  0  0  0  0  0  0  0  0  0  0
   12.3936  -12.8192    0.0000 C    0  0  0  0  0  0  0  0  0  0  0  0
   11.7684  -13.9892    0.0000 O    0  0  0  0  0  0  0  0  0  0  0  0
   10.4356  -14.0214    0.0000 C    0  0  0  0  0  0  0  0  0  0  0  0
   17.4873   -9.3867    0.0000 C    0  0  0  0  0  0  0  0  0  0  0  0
   17.7224   -8.0732    0.0000 C    0  0  0  0  0  0  0  0  0  0  0  0
   16.7056   -7.2167    0.0000 O    0  0  0  0  0  0  0  0  0  0  0  0
   16.9407   -5.9032    0.0000 C    0  0  0  0  0  0  0  0  0  0  0  0
   18.5044  -10.2436    0.0000 P    0  0  0  0  0  0  0  0  0  0  0  0
   19.8245  -10.3305    0.0000 C    0  0  0  0  0  0  0  0  0  0  0  0
   20.8977   -9.5471    0.0000 C    0  0  0  0  0  0  0  0  0  0  0  0
   19.9635  -11.6534    0.0000 C    0  0  0  0  0  0  0  0  0  0  0  0
   22.1147  -10.0939    0.0000 C    0  0  0  0  0  0  0  0  0  0  0  0
   21.1801  -12.2004    0.0000 C    0  0  0  0  0  0  0  0  0  0  0  0
   22.2537  -11.4168    0.0000 C    0  0  0  0  0  0  0  0  0  0  0  0
   19.5944   -7.5558    0.0000 C    0  0  0  0  0  0  0  0  0  0  0  0
   18.9752   -6.3770    0.0000 C    0  0  0  0  0  0  0  0  0  0  0  0
   20.9247   -7.6070    0.0000 C    0  0  0  0  0  0  0  0  0  0  0  0
   19.6789   -5.2543    0.0000 C    0  0  0  0  0  0  0  0  0  0  0  0
   21.6358   -6.4795    0.0000 C    0  0  0  0  0  0  0  0  0  0  0  0
   21.0087   -5.3054    0.0000 C    0  0  0  0  0  0  0  0  0  0  0  0
   18.3602  -11.5549    0.0000 C    0  0  0  0  0  0  0  0  0  0  0  0
   19.4363  -12.3367    0.0000 C    0  0  0  0  0  0  0  0  0  0  0  0
   19.2937  -13.6685    0.0000 O    0  0  0  0  0  0  0  0  0  0  0  0
   20.3696  -14.4499    0.0000 C    0  0  0  0  0  0  0  0  0  0  0  0
   16.0405  -11.7573    0.0000 Rh   0  0  0  0  0  0  0  0  0  0  0  0
   15.7294  -10.4734    0.0000 H    0  0  0  0  0  0  0  0  0  0  0  0
   17.0576  -12.6142    0.0000 Cl   0  0  0  0  0  0  0  0  0  0  0  0
   15.5344  -12.9917    0.0000 Cl   0  0  0  0  0  0  0  0  0  0  0  0
  1  2  1  0  0  0  0
  2  3  1  0  0  0  0
  3  4  1  0  0  0  0
  6  7  1  0  0  0  0
  6  8  1  0  0  0  0
  7  9  1  0  0  0  0
  8 10  1  0  0  0  0
  9 11  1  0  0  0  0
 10 11  1  0  0  0  0
  5  6  1  0  0  0  0
 12 13  1  0  0  0  0
 12 14  1  0  0  0  0
 13 15  1  0  0  0  0
 14 16  1  0  0  0  0
 15 17  1  0  0  0  0
 16 17  1  0  0  0  0
  5 12  1  0  0  0  0
  5 18  1  0  0  0  0
 18 19  1  0  0  0  0
 19 20  1  0  0  0  0
 20 21  1  0  0  0  0
  1  5  1  0  0  0  0
 22 23  1  0  0  0  0
 23 24  1  0  0  0  0
 24 25  1  0  0  0  0
 27 28  1  0  0  0  0
 27 29  1  0  0  0  0
 28 30  1  0  0  0  0
 29 31  1  0  0  0  0
 30 32  1  0  0  0  0
 31 32  1  0  0  0  0
 26 27  1  0  0  0  0
 33 34  1  0  0  0  0
 33 35  1  0  0  0  0
 34 36  1  0  0  0  0
 35 37  1  0  0  0  0
 36 38  1  0  0  0  0
 37 38  1  0  0  0  0
 26 33  1  0  0  0  0
 26 39  1  0  0  0  0
 39 40  1  0  0  0  0
 40 41  1  0  0  0  0
 41 42  1  0  0  0  0
 22 26  1  0  0  0  0
 43 44  1  0  0  0  0
 43 45  1  0  0  0  0
 43 46  1  0  0  0  0
 26 43  1  0  0  0  0
  5 43  1  0  0  0  0
M  END
> <NMREDATA_VERSION>
1.1

> <NMREDATA_LEVEL>
0

> <NMREDATA_SOLVENT>
CD2Cl2

> <NMREDATA_TEMPERATURE>
295

> <NMREDATA_FORMULA>
C36H73Cl2O4P2Rh

> <NMREDATA_SMILES>
COCCP([RhH](P(C1CCCCC1)(C1CCCCC1)(CCOC)CCOC)(Cl)Cl)(C1CCCCC1)(C1CCCCC1)CCOC

> <NMREDATA_ASSIGNMENT>
Rh43, 1287.00, 43

> <NMREDATA_1D_103Rh>
1287.00, L=Rh43

$$$$
