
  ACD/LABS03312417322D

 57 63  0  0  0  0  0  0  0  0  1 V2000
   12.5104   -4.3868    0.0000 C    0  0  0  0  0  0  0  0  0  0  0  0
   12.7453   -5.7002    0.0000 C    0  0  0  0  0  0  0  0  0  0  0  0
   13.5272   -3.5302    0.0000 C    0  0  0  0  0  0  0  0  0  0  0  0
   14.0017   -6.1491    0.0000 C    0  0  0  0  0  0  0  0  0  0  0  0
   14.7790   -3.9870    0.0000 C    0  0  0  0  0  0  0  0  0  0  0  0
   15.0186   -5.2925    0.0000 C    0  0  0  0  0  0  0  0  0  0  0  0
   10.3089   -8.1642    0.0000 C    0  0  0  0  0  0  0  0  0  0  0  0
   11.1655   -9.1810    0.0000 C    0  0  0  0  0  0  0  0  0  0  0  0
   10.7532   -6.9157    0.0000 C    0  0  0  0  0  0  0  0  0  0  0  0
   12.4789   -8.9460    0.0000 C    0  0  0  0  0  0  0  0  0  0  0  0
   12.0667   -6.6807    0.0000 C    0  0  0  0  0  0  0  0  0  0  0  0
   12.9233   -7.6976    0.0000 C    0  0  0  0  0  0  0  0  0  0  0  0
   16.4429  -17.5623    0.0000 C    0  0  0  0  0  0  0  0  0  0  0  0
   17.7022  -17.1015    0.0000 C    0  0  0  0  0  0  0  0  0  0  0  0
   15.4295  -16.7108    0.0000 C    0  0  0  0  0  0  0  0  0  0  0  0
   17.9237  -15.7958    0.0000 C    0  0  0  0  0  0  0  0  0  0  0  0
   15.6554  -15.3975    0.0000 C    0  0  0  0  0  0  0  0  0  0  0  0
   16.9024  -14.9397    0.0000 C    0  0  0  0  0  0  0  0  0  0  0  0
   13.8460  -12.3768    0.0000 C    0  0  0  0  0  0  0  0  0  0  0  0
   12.8286  -11.5331    0.0000 C    0  0  0  0  0  0  0  0  0  0  0  0
   13.6201  -13.6901    0.0000 C    0  0  0  0  0  0  0  0  0  0  0  0
   11.5812  -11.9907    0.0000 C    0  0  0  0  0  0  0  0  0  0  0  0
   12.3737  -14.1477    0.0000 C    0  0  0  0  0  0  0  0  0  0  0  0
   11.3553  -13.3039    0.0000 C    0  0  0  0  0  0  0  0  0  0  0  0
    7.2751  -12.2487    0.0000 C    0  0  0  0  0  0  0  0  0  0  0  0
    5.9442  -12.2484    0.0000 C    0  0  0  0  0  0  0  0  0  0  0  0
    7.9408  -13.4011    0.0000 C    0  0  0  0  0  0  0  0  0  0  0  0
    5.2790  -13.4005    0.0000 C    0  0  0  0  0  0  0  0  0  0  0  0
    7.2756  -14.5533    0.0000 C    0  0  0  0  0  0  0  0  0  0  0  0
    5.9449  -14.5526    0.0000 C    0  0  0  0  0  0  0  0  0  0  0  0
    9.0383  -14.7103    0.0000 C    0  0  0  0  0  0  0  0  0  0  0  0
   10.0640  -15.5589    0.0000 C    0  0  0  0  0  0  0  0  0  0  0  0
    7.7909  -15.1679    0.0000 C    0  0  0  0  0  0  0  0  0  0  0  0
    9.8305  -16.8678    0.0000 C    0  0  0  0  0  0  0  0  0  0  0  0
    7.5618  -16.4693    0.0000 C    0  0  0  0  0  0  0  0  0  0  0  0
    8.5833  -17.3250    0.0000 C    0  0  0  0  0  0  0  0  0  0  0  0
   15.2990  -13.3897    0.0000 Rh   0  0  0  0  0  0  0  0  0  0  0  0
   15.9594  -12.2459    0.0000 S    0  0  0  0  0  0  0  0  0  0  0  0
   16.6254  -13.3979    0.0000 H    0  0  0  0  0  0  0  0  0  0  0  0
   15.9648  -14.5421    0.0000 H    0  0  0  0  0  0  0  0  0  0  0  0
   14.2367   -7.4626    0.0000 P    0  0  0  0  0  0  0  0  0  0  0  0
   14.6341  -14.5414    0.0000 P    0  0  0  0  0  0  0  0  0  0  0  0
    9.2717  -13.4014    0.0000 P    0  0  0  0  0  0  0  0  0  0  0  0
   17.2681  -12.0182    0.0000 C    0  0  0  0  0  0  0  0  0  0  0  0
   18.1251  -13.0353    0.0000 C    0  0  0  0  0  0  0  0  0  0  0  0
   17.7325  -10.7707    0.0000 C    0  0  0  0  0  0  0  0  0  0  0  0
   19.4338  -12.8076    0.0000 C    0  0  0  0  0  0  0  0  0  0  0  0
   19.0414  -10.5437    0.0000 C    0  0  0  0  0  0  0  0  0  0  0  0
   19.8904  -11.5562    0.0000 C    0  0  0  0  0  0  0  0  0  0  0  0
   17.6731  -14.2788    0.0000 F    0  0  0  0  0  0  0  0  0  0  0  0
   20.2859  -13.8324    0.0000 F    0  0  0  0  0  0  0  0  0  0  0  0
   21.2071  -11.3331    0.0000 F    0  0  0  0  0  0  0  0  0  0  0  0
   19.4978   -9.2916    0.0000 F    0  0  0  0  0  0  0  0  0  0  0  0
   16.8759   -9.7539    0.0000 F    0  0  0  0  0  0  0  0  0  0  0  0
   15.6716   -7.0666    0.0000 C    0  0  0  0  0  0  0  0  0  0  0  0
   14.1653  -15.4472    0.0000 C    0  0  0  0  0  0  0  0  0  0  0  0
    9.1818  -12.1142    0.0000 C    0  0  0  0  0  0  0  0  0  0  0  0
  1  2  1  0  0  0  0
  1  3  2  0  0  0  0
  2  4  2  0  0  0  0
  3  5  1  0  0  0  0
  4  6  1  0  0  0  0
  5  6  2  0  0  0  0
  7  8  1  0  0  0  0
  7  9  2  0  0  0  0
  8 10  2  0  0  0  0
  9 11  1  0  0  0  0
 10 12  1  0  0  0  0
 11 12  2  0  0  0  0
 13 14  1  0  0  0  0
 13 15  2  0  0  0  0
 14 16  2  0  0  0  0
 15 17  1  0  0  0  0
 16 18  1  0  0  0  0
 17 18  2  0  0  0  0
 19 20  1  0  0  0  0
 19 21  2  0  0  0  0
 20 22  2  0  0  0  0
 21 23  1  0  0  0  0
 22 24  1  0  0  0  0
 23 24  2  0  0  0  0
 25 26  1  0  0  0  0
 25 27  2  0  0  0  0
 26 28  2  0  0  0  0
 27 29  1  0  0  0  0
 28 30  1  0  0  0  0
 29 30  2  0  0  0  0
 31 32  1  0  0  0  0
 31 33  2  0  0  0  0
 32 34  2  0  0  0  0
 33 35  1  0  0  0  0
 34 36  1  0  0  0  0
 35 36  2  0  0  0  0
 37 38  1  0  0  0  0
 37 39  1  0  0  0  0
 37 40  1  0  0  0  0
 37 41  1  0  0  0  0
 37 42  1  0  0  0  0
 37 43  1  0  0  0  0
 31 43  1  0  0  0  0
 27 43  1  0  0  0  0
 21 42  1  0  0  0  0
 17 42  1  0  0  0  0
 12 41  1  0  0  0  0
  4 41  1  0  0  0  0
 44 45  1  0  0  0  0
 44 46  2  0  0  0  0
 45 47  2  0  0  0  0
 46 48  1  0  0  0  0
 47 49  1  0  0  0  0
 48 49  2  0  0  0  0
 38 44  1  0  0  0  0
 45 50  1  0  0  0  0
 47 51  1  0  0  0  0
 49 52  1  0  0  0  0
 48 53  1  0  0  0  0
 46 54  1  0  0  0  0
 41 55  1  0  0  0  0
 42 56  1  0  0  0  0
 43 57  1  0  0  0  0
M  END
> <NMREDATA_VERSION>
1.1

> <NMREDATA_LEVEL>
0

> <NMREDATA_SOLVENT>
toluene-d8

> <NMREDATA_TEMPERATURE>
248

> <NMREDATA_FORMULA>
C45H44F5P3RhS

> <NMREDATA_SMILES>
Fc1c(S[RhH2](P(c2ccccc2)(c2ccccc2)C)(P(c2ccccc2)(c2ccccc2)C)P(c2ccccc2)(c2ccccc2)C)c(F)c(c(c1F)F)F

> <NMREDATA_ASSIGNMENT>
Rh37, -417.00, 37

> <NMREDATA_1D_103Rh>
-417.00, L=Rh37

$$$$
