
  ACD/LABS03132411362D

 54 60  0  0  0  0  0  0  0  0  2 V2000
   12.3916  -15.0442    0.0000 C    0  0  0  0  0  0  0  0  0  0  0  0
   13.0566  -13.8924    0.0000 C    0  0  0  0  0  0  0  0  0  0  0  0
   13.0566  -16.1960    0.0000 C    0  0  0  0  0  0  0  0  0  0  0  0
   14.3866  -13.8924    0.0000 C    0  0  0  0  0  0  0  0  0  0  0  0
   14.3866  -16.1960    0.0000 C    0  0  0  0  0  0  0  0  0  0  0  0
   15.0516  -15.0442    0.0000 C    0  0  0  0  0  0  0  0  0  0  0  0
   10.0880  -17.3478    0.0000 C    0  0  0  0  0  0  0  0  0  0  0  0
    8.9362  -16.6828    0.0000 C    0  0  0  0  0  0  0  0  0  0  0  0
   11.2398  -16.6828    0.0000 C    0  0  0  0  0  0  0  0  0  0  0  0
    8.9362  -15.3528    0.0000 C    0  0  0  0  0  0  0  0  0  0  0  0
   11.2398  -15.3528    0.0000 C    0  0  0  0  0  0  0  0  0  0  0  0
   10.0880  -14.6878    0.0000 C    0  0  0  0  0  0  0  0  0  0  0  0
   13.5434  -18.0128    0.0000 C    0  0  0  0  0  0  0  0  0  0  0  0
   14.6952  -17.3478    0.0000 C    0  0  0  0  0  0  0  0  0  0  0  0
   13.5434  -19.3428    0.0000 C    0  0  0  0  0  0  0  0  0  0  0  0
   15.8470  -18.0128    0.0000 C    0  0  0  0  0  0  0  0  0  0  0  0
   14.6952  -20.0078    0.0000 C    0  0  0  0  0  0  0  0  0  0  0  0
   15.8470  -19.3428    0.0000 C    0  0  0  0  0  0  0  0  0  0  0  0
   10.5748  -17.8347    0.0000 N    0  0  0  0  0  0  0  0  0  0  0  0
   10.5748  -13.8447    0.0000 C    0  0  0  0  0  0  0  0  0  0  0  0
   11.7266  -14.5097    0.0000 C    0  0  0  0  0  0  0  0  0  0  0  0
    9.4230  -14.5097    0.0000 C    0  0  0  0  0  0  0  0  0  0  0  0
   11.7266  -15.8397    0.0000 C    0  0  0  0  0  0  0  0  0  0  0  0
    9.4230  -15.8397    0.0000 C    0  0  0  0  0  0  0  0  0  0  0  0
   10.5748  -16.5047    0.0000 C    0  0  0  0  0  0  0  0  0  0  0  0
   11.7266  -18.4997    0.0000 Rh   0  5  0  0  0  0  0  0  0  0  0  0
   12.8784  -19.1647    0.0000 N    0  0  0  0  0  0  0  0  0  0  0  0
   16.3339  -17.1697    0.0000 C    0  0  0  0  0  0  0  0  0  0  0  0
   16.3339  -18.4997    0.0000 C    0  0  0  0  0  0  0  0  0  0  0  0
   15.1820  -16.5047    0.0000 C    0  0  0  0  0  0  0  0  0  0  0  0
   15.1820  -19.1647    0.0000 C    0  0  0  0  0  0  0  0  0  0  0  0
   14.0302  -17.1697    0.0000 C    0  0  0  0  0  0  0  0  0  0  0  0
   14.0302  -18.4997    0.0000 C    0  0  0  0  0  0  0  0  0  0  0  0
   11.0616  -19.6515    0.0000 P    0  0  0  0  0  0  0  0  0  0  0  0
   12.3916  -17.3478    0.0000 P    0  0  0  0  0  0  0  0  0  0  0  0
    8.7580  -16.9915    0.0000 C    0  0  0  0  0  0  0  0  0  0  0  0
    9.9098  -17.6565    0.0000 C    0  0  0  0  0  0  0  0  0  0  0  0
    7.6062  -17.6565    0.0000 C    0  0  0  0  0  0  0  0  0  0  0  0
    9.9098  -18.9865    0.0000 C    0  0  0  0  0  0  0  0  0  0  0  0
    7.6062  -18.9865    0.0000 C    0  0  0  0  0  0  0  0  0  0  0  0
    8.7580  -19.6515    0.0000 C    0  0  0  0  0  0  0  0  0  0  0  0
   12.2134  -21.6465    0.0000 C    0  0  0  0  0  0  0  0  0  0  0  0
   12.2134  -20.3165    0.0000 C    0  0  0  0  0  0  0  0  0  0  0  0
   13.3652  -22.3115    0.0000 C    0  0  0  0  0  0  0  0  0  0  0  0
   13.3652  -19.6515    0.0000 C    0  0  0  0  0  0  0  0  0  0  0  0
   14.5170  -21.6465    0.0000 C    0  0  0  0  0  0  0  0  0  0  0  0
   14.5170  -20.3165    0.0000 C    0  0  0  0  0  0  0  0  0  0  0  0
   10.3966  -20.8033    0.0000 C    0  0  0  0  0  0  0  0  0  0  0  0
   11.0616  -21.9551    0.0000 C    0  0  0  0  0  0  0  0  0  0  0  0
    9.0666  -20.8033    0.0000 C    0  0  0  0  0  0  0  0  0  0  0  0
   10.3966  -23.1069    0.0000 C    0  0  0  0  0  0  0  0  0  0  0  0
    8.4016  -21.9551    0.0000 C    0  0  0  0  0  0  0  0  0  0  0  0
    9.0666  -23.1069    0.0000 C    0  0  0  0  0  0  0  0  0  0  0  0
   22.0171  -17.9790    0.0000 Li   0  3  0  0  0  0  0  0  0  0  0  0
  1  2  1  0  0  0  0
  1  3  2  0  0  0  0
  2  4  2  0  0  0  0
  3  5  1  0  0  0  0
  4  6  1  0  0  0  0
  5  6  2  0  0  0  0
  7  8  1  0  0  0  0
  7  9  2  0  0  0  0
  8 10  2  0  0  0  0
  9 11  1  0  0  0  0
 10 12  1  0  0  0  0
 11 12  2  0  0  0  0
 13 14  1  0  0  0  0
 13 15  2  0  0  0  0
 14 16  2  0  0  0  0
 15 17  1  0  0  0  0
 16 18  1  0  0  0  0
 17 18  2  0  0  0  0
 20 21  1  0  0  0  0
 20 22  2  0  0  0  0
 21 23  2  0  0  0  0
 22 24  1  0  0  0  0
 23 25  1  0  0  0  0
 24 25  2  0  0  0  0
 19 25  1  0  0  0  0
 26 27  1  0  0  0  0
 28 29  1  0  0  0  0
 28 30  2  0  0  0  0
 29 31  2  0  0  0  0
 30 32  1  0  0  0  0
 31 33  1  0  0  0  0
 32 33  2  0  0  0  0
 27 33  1  0  0  0  0
 19 26  1  0  0  0  0
 26 34  1  0  0  0  0
 26 35  1  0  0  0  0
 36 37  1  0  0  0  0
 36 38  2  0  0  0  0
 37 39  2  0  0  0  0
 38 40  1  0  0  0  0
 39 41  1  0  0  0  0
 40 41  2  0  0  0  0
 34 39  1  0  0  0  0
 42 43  1  0  0  0  0
 42 44  2  0  0  0  0
 43 45  2  0  0  0  0
 44 46  1  0  0  0  0
 45 47  1  0  0  0  0
 46 47  2  0  0  0  0
 34 43  1  0  0  0  0
 48 49  1  0  0  0  0
 48 50  2  0  0  0  0
 49 51  2  0  0  0  0
 50 52  1  0  0  0  0
 51 53  1  0  0  0  0
 52 53  2  0  0  0  0
 34 48  1  0  0  0  0
 13 35  1  0  0  0  0
  9 35  1  0  0  0  0
  3 35  1  0  0  0  0
M  END
> <NMREDATA_VERSION>
1.1

> <NMREDATA_LEVEL>
0

> <NMREDATA_SOLVENT>
THF

> <NMREDATA_TEMPERATURE>
203

> <NMREDATA_FORMULA>
C48H45LiN2P2Rh

> <NMREDATA_SMILES>
c1ccc(cc1)N[Rh](P(c1ccccc1)(c1ccccc1)c1ccccc1)(P(c1ccccc1)(c1ccccc1)c1ccccc1)Nc1ccccc1.[LiH]

> <NMREDATA_ASSIGNMENT>
Rh26, 225.00, 26

> <NMREDATA_1D_103Rh>
225.00, L=Rh26

$$$$
