
  ACD/LABS03292412352D

 48 54  0  0  0  0  0  0  0  0  1 V2000
   13.8490  -13.3733    0.0000 C    0  0  0  0  0  0  0  0  0  0  0  0
   13.3877  -12.1228    0.0000 C    0  0  0  0  0  0  0  0  0  0  0  0
   15.1525  -13.6037    0.0000 C    0  0  0  0  0  0  0  0  0  0  0  0
   14.2392  -11.1031    0.0000 C    0  0  0  0  0  0  0  0  0  0  0  0
   16.0124  -12.5841    0.0000 C    0  0  0  0  0  0  0  0  0  0  0  0
   15.5515  -11.3336    0.0000 C    0  0  0  0  0  0  0  0  0  0  0  0
   16.1633  -10.8193    0.0000 C    0  0  0  0  0  0  0  0  0  0  0  0
   16.1633   -9.4893    0.0000 C    0  0  0  0  0  0  0  0  0  0  0  0
   17.3067  -11.4845    0.0000 C    0  0  0  0  0  0  0  0  0  0  0  0
   17.3067   -8.8245    0.0000 C    0  0  0  0  0  0  0  0  0  0  0  0
   18.4596  -10.8193    0.0000 C    0  0  0  0  0  0  0  0  0  0  0  0
   18.4596   -9.4893    0.0000 C    0  0  0  0  0  0  0  0  0  0  0  0
   18.1048  -14.9691    0.0000 C    0  0  0  0  0  0  0  0  0  0  0  0
   17.8743  -16.2722    0.0000 C    0  0  0  0  0  0  0  0  0  0  0  0
   17.0851  -14.1180    0.0000 C    0  0  0  0  0  0  0  0  0  0  0  0
   16.6334  -16.7334    0.0000 C    0  0  0  0  0  0  0  0  0  0  0  0
   15.8442  -14.5793    0.0000 C    0  0  0  0  0  0  0  0  0  0  0  0
   15.6134  -15.8824    0.0000 C    0  0  0  0  0  0  0  0  0  0  0  0
   14.0883  -18.8174    0.0000 C    0  0  0  0  0  0  0  0  0  0  0  0
   14.7534  -19.9699    0.0000 C    0  0  0  0  0  0  0  0  0  0  0  0
   12.7583  -18.8174    0.0000 C    0  0  0  0  0  0  0  0  0  0  0  0
   14.0883  -21.1137    0.0000 C    0  0  0  0  0  0  0  0  0  0  0  0
   12.0934  -19.9699    0.0000 C    0  0  0  0  0  0  0  0  0  0  0  0
   12.7583  -21.1137    0.0000 C    0  0  0  0  0  0  0  0  0  0  0  0
   13.6005  -15.6692    0.0000 C    0  0  0  0  0  0  0  0  0  0  0  0
   13.6005  -16.9996    0.0000 C    0  0  0  0  0  0  0  0  0  0  0  0
   12.4479  -15.0044    0.0000 C    0  0  0  0  0  0  0  0  0  0  0  0
   12.4479  -17.6644    0.0000 C    0  0  0  0  0  0  0  0  0  0  0  0
   11.3042  -15.6692    0.0000 C    0  0  0  0  0  0  0  0  0  0  0  0
   11.3042  -16.9996    0.0000 C    0  0  0  0  0  0  0  0  0  0  0  0
   18.4062  -21.1048    0.0000 C    0  0  0  0  0  0  0  0  0  0  0  0
   17.2537  -20.4400    0.0000 C    0  0  0  0  0  0  0  0  0  0  0  0
   19.5592  -20.4400    0.0000 C    0  0  0  0  0  0  0  0  0  0  0  0
   17.2537  -19.1100    0.0000 C    0  0  0  0  0  0  0  0  0  0  0  0
   19.5592  -19.1100    0.0000 C    0  0  0  0  0  0  0  0  0  0  0  0
   18.4062  -18.4448    0.0000 C    0  0  0  0  0  0  0  0  0  0  0  0
   18.6190  -13.0361    0.0000 Rh   0  0  0  0  0  0  0  0  0  0  0  0
   19.4705  -12.0164    0.0000 H    0  0  0  0  0  0  0  0  0  0  0  0
   19.0803  -14.2866    0.0000 H    0  0  0  0  0  0  0  0  0  0  0  0
   17.3067  -12.8145    0.0000 P    0  0  0  0  0  0  0  0  0  0  0  0
   14.7534  -17.6644    0.0000 P    0  0  0  0  0  0  0  0  0  0  0  0
   19.9313  -13.2669    0.0000 C    0  0  0  0  0  0  0  0  0  0  0  0
   20.3838  -14.5170    0.0000 C    0  0  0  0  0  0  0  0  0  0  0  0
   20.7828  -12.2469    0.0000 C    0  0  0  0  0  0  0  0  0  0  0  0
   21.6961  -14.7475    0.0000 C    0  0  0  0  0  0  0  0  0  0  0  0
   22.0951  -12.4777    0.0000 C    0  0  0  0  0  0  0  0  0  0  0  0
   22.5472  -13.7278    0.0000 N    0  0  0  0  0  0  0  0  0  0  0  0
   18.1670  -11.7860    0.0000 Cl   0  0  0  0  0  0  0  0  0  0  0  0
  1  2  1  0  0  0  0
  1  3  2  0  0  0  0
  2  4  2  0  0  0  0
  3  5  1  0  0  0  0
  4  6  1  0  0  0  0
  5  6  2  0  0  0  0
  7  8  1  0  0  0  0
  7  9  2  0  0  0  0
  8 10  2  0  0  0  0
  9 11  1  0  0  0  0
 10 12  1  0  0  0  0
 11 12  2  0  0  0  0
 13 14  1  0  0  0  0
 13 15  2  0  0  0  0
 14 16  2  0  0  0  0
 15 17  1  0  0  0  0
 16 18  1  0  0  0  0
 17 18  2  0  0  0  0
 19 20  1  0  0  0  0
 19 21  2  0  0  0  0
 20 22  2  0  0  0  0
 21 23  1  0  0  0  0
 22 24  1  0  0  0  0
 23 24  2  0  0  0  0
 25 26  1  0  0  0  0
 25 27  2  0  0  0  0
 26 28  2  0  0  0  0
 27 29  1  0  0  0  0
 28 30  1  0  0  0  0
 29 30  2  0  0  0  0
 31 32  1  0  0  0  0
 31 33  2  0  0  0  0
 32 34  2  0  0  0  0
 33 35  1  0  0  0  0
 34 36  1  0  0  0  0
 35 36  2  0  0  0  0
 37 38  1  0  0  0  0
 37 39  1  0  0  0  0
 37 40  1  0  0  0  0
 37 41  1  0  0  0  0
 34 41  1  0  0  0  0
 26 41  1  0  0  0  0
 19 41  1  0  0  0  0
 15 40  1  0  0  0  0
  9 40  1  0  0  0  0
  5 40  1  0  0  0  0
 42 43  1  0  0  0  0
 42 44  2  0  0  0  0
 43 45  2  0  0  0  0
 44 46  1  0  0  0  0
 45 47  1  0  0  0  0
 46 47  2  0  0  0  0
 37 42  1  0  0  0  0
 37 48  1  0  0  0  0
M  END
> <NMREDATA_VERSION>
1.1

> <NMREDATA_LEVEL>
0

> <NMREDATA_SOLVENT>
toluene-d8

> <NMREDATA_TEMPERATURE>
247

> <NMREDATA_FORMULA>
C41H38ClNP2Rh

> <NMREDATA_SMILES>
Cl[RhH2](P(c1ccccc1)(c1ccccc1)c1ccccc1)(P(c1ccccc1)(c1ccccc1)c1ccccc1)c1ccncc1

> <NMREDATA_ASSIGNMENT>
Rh37, 460.00, 37

> <NMREDATA_1D_103Rh>
460.00, L=Rh37

$$$$
