
  ACD/LABS03132411342D

 66 75  0  0  0  0  0  0  0  0  1 V2000
   17.0638  -21.6405    0.0000 C    0  0  0  0  0  0  0  0  0  0  0  0
   17.0638  -22.9705    0.0000 C    0  0  0  0  0  0  0  0  0  0  0  0
   15.9119  -20.9755    0.0000 C    0  0  0  0  0  0  0  0  0  0  0  0
   15.9119  -23.6355    0.0000 C    0  0  0  0  0  0  0  0  0  0  0  0
   14.7601  -21.6405    0.0000 C    0  0  0  0  0  0  0  0  0  0  0  0
   14.7601  -22.9705    0.0000 C    0  0  0  0  0  0  0  0  0  0  0  0
   14.4679  -22.8744    0.0000 C    0  0  0  0  0  0  0  0  0  0  0  0
   14.4679  -24.2044    0.0000 C    0  0  0  0  0  0  0  0  0  0  0  0
   13.3160  -22.2094    0.0000 C    0  0  0  0  0  0  0  0  0  0  0  0
   13.3160  -24.8694    0.0000 C    0  0  0  0  0  0  0  0  0  0  0  0
   12.1642  -22.8744    0.0000 C    0  0  0  0  0  0  0  0  0  0  0  0
   12.1642  -24.2044    0.0000 C    0  0  0  0  0  0  0  0  0  0  0  0
   11.4233  -22.8904    0.0000 C    0  0  0  0  0  0  0  0  0  0  0  0
   11.4233  -24.2204    0.0000 C    0  0  0  0  0  0  0  0  0  0  0  0
   10.2714  -22.2254    0.0000 C    0  0  0  0  0  0  0  0  0  0  0  0
   10.2714  -24.8854    0.0000 C    0  0  0  0  0  0  0  0  0  0  0  0
    9.1196  -22.8904    0.0000 C    0  0  0  0  0  0  0  0  0  0  0  0
    9.1196  -24.2204    0.0000 C    0  0  0  0  0  0  0  0  0  0  0  0
   16.0111  -14.3784    0.0000 C    0  0  0  0  0  0  0  0  0  0  0  0
   15.3461  -15.5302    0.0000 C    0  0  0  0  0  0  0  0  0  0  0  0
   15.3461  -13.2266    0.0000 C    0  0  0  0  0  0  0  0  0  0  0  0
   14.0161  -15.5302    0.0000 C    0  0  0  0  0  0  0  0  0  0  0  0
   14.0161  -13.2266    0.0000 C    0  0  0  0  0  0  0  0  0  0  0  0
   13.3511  -14.3784    0.0000 C    0  0  0  0  0  0  0  0  0  0  0  0
   16.8066  -18.6771    0.0000 C    0  0  0  0  0  0  0  0  0  0  0  0
   15.6547  -19.3421    0.0000 C    0  0  0  0  0  0  0  0  0  0  0  0
   16.8066  -17.3470    0.0000 C    0  0  0  0  0  0  0  0  0  0  0  0
   14.5029  -18.6771    0.0000 C    0  0  0  0  0  0  0  0  0  0  0  0
   15.6547  -16.6821    0.0000 C    0  0  0  0  0  0  0  0  0  0  0  0
   14.5029  -17.3470    0.0000 C    0  0  0  0  0  0  0  0  0  0  0  0
    9.8957  -16.0170    0.0000 C    0  0  0  0  0  0  0  0  0  0  0  0
    9.8957  -14.6870    0.0000 C    0  0  0  0  0  0  0  0  0  0  0  0
   11.0475  -16.6821    0.0000 C    0  0  0  0  0  0  0  0  0  0  0  0
   11.0475  -14.0220    0.0000 C    0  0  0  0  0  0  0  0  0  0  0  0
   12.1993  -16.0170    0.0000 C    0  0  0  0  0  0  0  0  0  0  0  0
   12.1993  -14.6870    0.0000 C    0  0  0  0  0  0  0  0  0  0  0  0
    9.2307  -17.1689    0.0000 C    0  0  0  0  0  0  0  0  0  0  0  0
    8.0789  -16.5039    0.0000 C    0  0  0  0  0  0  0  0  0  0  0  0
   10.3825  -16.5039    0.0000 C    0  0  0  0  0  0  0  0  0  0  0  0
    8.0789  -15.1739    0.0000 C    0  0  0  0  0  0  0  0  0  0  0  0
   10.3825  -15.1739    0.0000 C    0  0  0  0  0  0  0  0  0  0  0  0
    9.2307  -14.5089    0.0000 C    0  0  0  0  0  0  0  0  0  0  0  0
   11.5343  -19.4725    0.0000 C    0  0  0  0  0  0  0  0  0  0  0  0
   10.8693  -20.6243    0.0000 C    0  0  0  0  0  0  0  0  0  0  0  0
   10.8693  -18.3207    0.0000 C    0  0  0  0  0  0  0  0  0  0  0  0
    9.5393  -20.6243    0.0000 C    0  0  0  0  0  0  0  0  0  0  0  0
    9.5393  -18.3207    0.0000 C    0  0  0  0  0  0  0  0  0  0  0  0
    8.8743  -19.4725    0.0000 C    0  0  0  0  0  0  0  0  0  0  0  0
   12.8643  -14.8652    0.0000 C    0  0  0  0  0  0  0  0  0  0  0  0
   12.1993  -13.7134    0.0000 C    0  0  0  0  0  0  0  0  0  0  0  0
   14.1943  -14.8652    0.0000 C    0  0  0  0  0  0  0  0  0  0  0  0
   12.8643  -12.5616    0.0000 C    0  0  0  0  0  0  0  0  0  0  0  0
   14.8593  -13.7134    0.0000 C    0  0  0  0  0  0  0  0  0  0  0  0
   14.1943  -12.5616    0.0000 C    0  0  0  0  0  0  0  0  0  0  0  0
   12.6861  -17.8339    0.0000 Rh   0  0  0  0  0  0  0  0  0  0  0  0
   13.3511  -16.6821    0.0000 P    0  0  0  0  0  0  0  0  0  0  0  0
   11.5343  -17.1689    0.0000 P    0  0  0  0  0  0  0  0  0  0  0  0
   13.8379  -18.4989    0.0000 N    0  0  0  0  0  0  0  0  0  0  0  0
   14.9897  -17.8339    0.0000 C    0  0  0  0  0  0  0  0  0  0  0  0
   13.8379  -19.8289    0.0000 C    0  0  0  0  0  0  0  0  0  0  0  0
   16.1416  -18.4989    0.0000 C    0  0  0  0  0  0  0  0  0  0  0  0
   14.9898  -20.4939    0.0000 C    0  0  0  0  0  0  0  0  0  0  0  0
   16.1416  -19.8289    0.0000 C    0  0  0  0  0  0  0  0  0  0  0  0
   12.0211  -18.9857    0.0000 N    0  0  0  0  0  0  0  0  0  0  0  0
   11.3561  -20.1375    0.0000 C    0  0  0  0  0  0  0  0  0  0  0  0
   12.1463  -21.2960    0.0000 B    0  0  0  0  0  0  0  0  0  0  0  0
  1  2  1  0  0  0  0
  1  3  2  0  0  0  0
  2  4  2  0  0  0  0
  3  5  1  0  0  0  0
  4  6  1  0  0  0  0
  5  6  2  0  0  0  0
  7  8  1  0  0  0  0
  7  9  2  0  0  0  0
  8 10  2  0  0  0  0
  9 11  1  0  0  0  0
 10 12  1  0  0  0  0
 11 12  2  0  0  0  0
 13 14  1  0  0  0  0
 13 15  2  0  0  0  0
 14 16  2  0  0  0  0
 15 17  1  0  0  0  0
 16 18  1  0  0  0  0
 17 18  2  0  0  0  0
 19 20  1  0  0  0  0
 19 21  2  0  0  0  0
 20 22  2  0  0  0  0
 21 23  1  0  0  0  0
 22 24  1  0  0  0  0
 23 24  2  0  0  0  0
 25 26  1  0  0  0  0
 25 27  2  0  0  0  0
 26 28  2  0  0  0  0
 27 29  1  0  0  0  0
 28 30  1  0  0  0  0
 29 30  2  0  0  0  0
 31 32  1  0  0  0  0
 31 33  2  0  0  0  0
 32 34  2  0  0  0  0
 33 35  1  0  0  0  0
 34 36  1  0  0  0  0
 35 36  2  0  0  0  0
 37 38  1  0  0  0  0
 37 39  2  0  0  0  0
 38 40  2  0  0  0  0
 39 41  1  0  0  0  0
 40 42  1  0  0  0  0
 41 42  2  0  0  0  0
 43 44  1  0  0  0  0
 43 45  2  0  0  0  0
 44 46  2  0  0  0  0
 45 47  1  0  0  0  0
 46 48  1  0  0  0  0
 47 48  2  0  0  0  0
 49 50  1  0  0  0  0
 49 51  2  0  0  0  0
 50 52  2  0  0  0  0
 51 53  1  0  0  0  0
 52 54  1  0  0  0  0
 53 54  2  0  0  0  0
 55 56  1  0  0  0  0
 55 57  1  0  0  0  0
 49 57  1  0  0  0  0
 45 57  1  0  0  0  0
 39 57  1  0  0  0  0
 35 56  1  0  0  0  0
 30 56  1  0  0  0  0
 22 56  1  0  0  0  0
 58 59  1  0  0  0  0
 58 60  2  0  0  0  0
 59 61  2  0  0  0  0
 60 62  1  0  0  0  0
 61 63  1  0  0  0  0
 62 63  2  0  0  0  0
 55 58  1  0  0  0  0
 64 65  3  0  0  0  0
 55 64  1  0  0  0  0
 65 66  1  0  0  0  0
 13 66  1  0  0  0  0
  9 66  1  0  0  0  0
  5 66  1  0  0  0  0
M  END
> <NMREDATA_VERSION>
1.1

> <NMREDATA_LEVEL>
0

> <NMREDATA_SOLVENT>
toluene-d8

> <NMREDATA_TEMPERATURE>
247

> <NMREDATA_FORMULA>
C60H54BN2P2Rh

> <NMREDATA_SMILES>
c1ccc(cc1)[B](c1ccccc1)(c1ccccc1)C#N[Rh](P(c1ccccc1)(c1ccccc1)c1ccccc1)(P(c1ccccc1)(c1ccccc1)c1ccccc1)N1=CC=CC=C1

> <NMREDATA_ASSIGNMENT>
Rh55, 111.00, 55

> <NMREDATA_1D_103Rh>
111.00, L=Rh55

$$$$
