
  ACD/LABS02122411152D

 17 16  0  0  0  0  0  0  0  0  2 V2000
   19.0068   -6.6366    0.0000 Rh   0  3  0  0  0  0  0  0  0  0  0  0
   21.8571   -6.1394    0.0000 C    0  0  0  0  0  0  0  0  0  0  0  0
   22.3100   -4.8963    0.0000 C    0  0  0  0  0  0  0  0  0  0  0  0
   23.6241   -4.6657    0.0000 C    0  0  0  0  0  0  0  0  0  0  0  0
   24.4765   -5.6866    0.0000 C    0  0  0  0  0  0  0  0  0  0  0  0
   22.7096   -7.1608    0.0000 O    0  0  0  0  0  0  0  0  0  0  0  0
   24.0859   -3.4224    0.0000 O    0  0  0  0  0  0  0  0  0  0  0  0
   17.9620   -7.6161    0.0000 C    0  0  0  0  0  0  0  0  0  0  0  0
   16.0680   -7.5444    0.0000 C    0  0  0  0  0  0  0  0  0  0  0  0
   18.7299   -8.2611    0.0000 C    0  0  0  0  0  0  0  0  0  0  0  0
   15.3001   -8.4147    0.0000 H    0  0  0  0  0  0  0  0  0  0  0  0
   15.7403   -6.7561    0.0000 C    0  0  0  0  0  0  0  0  0  0  0  0
   23.9080  -10.6881    0.0000 C    0  0  0  0  0  0  0  0  0  0  0  0
   27.8339  -10.8163    0.0000 C    0  0  0  0  0  0  0  0  0  0  0  0
   28.8915  -11.5053    0.0000 H    0  0  0  0  0  0  0  0  0  0  0  0
   23.0266  -11.8578    0.0000 C    0  0  0  0  0  0  0  0  0  0  0  0
   28.6030   -9.7427    0.0000 C    0  0  0  0  0  0  0  0  0  0  0  0
  1  2  1  0  0  0  0
  2  3  1  0  0  0  0
  3  4  1  0  0  0  0
  4  5  1  0  0  0  0
  2  6  2  0  0  0  0
  4  7  2  0  0  0  0
  1  8  1  0  0  0  0
  8  9  2  0  0  0  0
  8 10  1  0  0  0  0
  9 11  1  0  0  0  0
  9 12  1  0  0  0  0
  1 13  1  0  0  0  0
 13 14  2  0  0  0  0
 14 15  1  0  0  0  0
 13 16  1  0  0  0  0
 14 17  1  0  0  0  0
M  END
> <NMREDATA_VERSION>
1.1

> <NMREDATA_LEVEL>
0

> <NMREDATA_SOLVENT>
DCCl3

> <NMREDATA_TEMPERATURE>
270

> <NMREDATA_FORMULA>
C12H19O2Rh

> <NMREDATA_SMILES>
C/C=C(\[Rh](C(=O)CC(=O)C)/C(=C\C)/C)/C

> <NMREDATA_ASSIGNMENT>
Rh1, 1603.00, 1

> <NMREDATA_1D_103Rh>
1603.00, L=Rh1

$$$$
