
  ACD/LABS03122418262D

 46 48  0  0  0  0  0  0  0  0  2 V2000
   11.5448   -9.4452    0.0000 Rh   0  3  0  0  0  0  0  0  0  0  0  0
   12.8902   -8.6743    0.0000 P    0  0  0  0  0  0  0  0  0  0  0  0
   12.1098   -7.3240    0.0000 C    0  0  0  0  0  0  0  0  0  0  0  0
   13.6610  -10.0191    0.0000 C    0  0  0  0  0  0  0  0  0  0  0  0
   14.2314   -7.8886    0.0000 C    0  0  0  0  0  0  0  0  0  0  0  0
   14.2412   -6.3343    0.0000 C    0  0  0  0  0  0  0  0  0  0  0  0
   15.5824   -5.5486    0.0000 P    0  0  0  0  0  0  0  0  0  0  0  0
   11.5499  -10.9959    0.0000 P    0  0  0  0  0  0  0  0  0  0  0  0
   13.0998  -10.9910    0.0000 C    0  0  0  0  0  0  0  0  0  0  0  0
    9.9902  -10.9952    0.0000 C    0  0  0  0  0  0  0  0  0  0  0  0
   11.5400  -12.5502    0.0000 C    0  0  0  0  0  0  0  0  0  0  0  0
   10.1989  -13.3359    0.0000 C    0  0  0  0  0  0  0  0  0  0  0  0
   10.1890  -14.8902    0.0000 P    0  0  0  0  0  0  0  0  0  0  0  0
   10.5590   -7.3284    0.0000 C    0  0  0  0  0  0  0  0  0  0  0  0
   15.2206  -10.0197    0.0000 C    0  0  0  0  0  0  0  0  0  0  0  0
   13.8802  -12.3413    0.0000 C    0  0  0  0  0  0  0  0  0  0  0  0
    9.2186   -9.6500    0.0000 C    0  0  0  0  0  0  0  0  0  0  0  0
   16.9334   -6.3172    0.0000 C    0  0  0  0  0  0  0  0  0  0  0  0
   18.2745   -5.5315    0.0000 C    0  0  0  0  0  0  0  0  0  0  0  0
   16.9433   -7.8716    0.0000 C    0  0  0  0  0  0  0  0  0  0  0  0
   19.6256   -6.3002    0.0000 C    0  0  0  0  0  0  0  0  0  0  0  0
   18.2943   -8.6402    0.0000 C    0  0  0  0  0  0  0  0  0  0  0  0
   19.6354   -7.8545    0.0000 C    0  0  0  0  0  0  0  0  0  0  0  0
   15.5725   -3.9943    0.0000 C    0  0  0  0  0  0  0  0  0  0  0  0
   14.2215   -3.2257    0.0000 C    0  0  0  0  0  0  0  0  0  0  0  0
   16.9137   -3.2085    0.0000 C    0  0  0  0  0  0  0  0  0  0  0  0
   14.2117   -1.6713    0.0000 C    0  0  0  0  0  0  0  0  0  0  0  0
   16.9038   -1.6542    0.0000 C    0  0  0  0  0  0  0  0  0  0  0  0
   15.5528   -0.8856    0.0000 C    0  0  0  0  0  0  0  0  0  0  0  0
    8.8380  -15.6588    0.0000 C    0  0  0  0  0  0  0  0  0  0  0  0
    8.8281  -17.2131    0.0000 C    0  0  0  0  0  0  0  0  0  0  0  0
    7.4968  -14.8731    0.0000 C    0  0  0  0  0  0  0  0  0  0  0  0
    7.4770  -17.9817    0.0000 C    0  0  0  0  0  0  0  0  0  0  0  0
    6.1458  -15.6417    0.0000 C    0  0  0  0  0  0  0  0  0  0  0  0
    6.1359  -17.1960    0.0000 C    0  0  0  0  0  0  0  0  0  0  0  0
   11.5301  -15.6759    0.0000 C    0  0  0  0  0  0  0  0  0  0  0  0
   12.8811  -14.9073    0.0000 C    0  0  0  0  0  0  0  0  0  0  0  0
   11.5203  -17.2303    0.0000 C    0  0  0  0  0  0  0  0  0  0  0  0
   14.2223  -15.6931    0.0000 C    0  0  0  0  0  0  0  0  0  0  0  0
   12.8614  -18.0160    0.0000 C    0  0  0  0  0  0  0  0  0  0  0  0
   14.2124  -17.2474    0.0000 C    0  0  0  0  0  0  0  0  0  0  0  0
   22.0732   -8.1963    0.0000 Cl   0  0  0  0  0  0  0  0  0  0  0  0
   21.4322   -7.0861    0.0000 O    0  0  0  0  0  0  0  0  0  0  0  0
   23.1834   -7.5554    0.0000 O    0  0  0  0  0  0  0  0  0  0  0  0
   20.9630   -8.8373    0.0000 O    0  0  0  0  0  0  0  0  0  0  0  0
   22.7142   -9.3065    0.0000 O    0  5  0  0  0  0  0  0  0  0  0  0
  1  2  1  0  0  0  0
  2  3  1  0  0  0  0
  2  4  1  0  0  0  0
  2  5  1  0  0  0  0
  5  6  1  0  0  0  0
  6  7  1  0  0  0  0
  8  9  1  0  0  0  0
  8 10  1  0  0  0  0
  8 11  1  0  0  0  0
 11 12  1  0  0  0  0
 12 13  1  0  0  0  0
  1  8  1  0  0  0  0
  3 14  1  0  0  0  0
  4 15  1  0  0  0  0
  9 16  1  0  0  0  0
 10 17  1  0  0  0  0
 18 19  1  0  0  0  0
 18 20  2  0  0  0  0
 19 21  2  0  0  0  0
 20 22  1  0  0  0  0
 21 23  1  0  0  0  0
 22 23  2  0  0  0  0
  7 18  1  0  0  0  0
 24 25  1  0  0  0  0
 24 26  2  0  0  0  0
 25 27  2  0  0  0  0
 26 28  1  0  0  0  0
 27 29  1  0  0  0  0
 28 29  2  0  0  0  0
  7 24  1  0  0  0  0
 30 31  1  0  0  0  0
 30 32  2  0  0  0  0
 31 33  2  0  0  0  0
 32 34  1  0  0  0  0
 33 35  1  0  0  0  0
 34 35  2  0  0  0  0
 13 30  1  0  0  0  0
 36 37  1  0  0  0  0
 36 38  2  0  0  0  0
 37 39  2  0  0  0  0
 38 40  1  0  0  0  0
 39 41  1  0  0  0  0
 40 41  2  0  0  0  0
 13 36  1  0  0  0  0
 42 43  2  0  0  0  0
 42 44  2  0  0  0  0
 42 45  2  0  0  0  0
 42 46  1  0  0  0  0
M  END
> <NMREDATA_VERSION>
1.1

> <NMREDATA_LEVEL>
0

> <NMREDATA_SOLVENT>
CD2Cl2

> <NMREDATA_TEMPERATURE>
298

> <NMREDATA_FORMULA>
C36H51ClO4P4Rh

> <NMREDATA_SMILES>
O[Cl](=O)(=O)=O.CCP([Rh]P(CCP(c1ccccc1)c1ccccc1)(CC)CC)(CCP(c1ccccc1)c1ccccc1)CC

> <NMREDATA_ASSIGNMENT>
Rh1, -1304.00, 1

> <NMREDATA_1D_103Rh>
-1304.00, L=Rh1

$$$$
