LaurenceCarlton-2008_00110.mol
  ChemDraw08142417202D

 13 24  0  0  0  0  0  0  0  0999 V2000
   -0.2233   -1.1141    0.0000 Rh   0  0  0  0  0  0  0  0  0  0  0  0
    1.4650    0.8356    0.0000 C    0  0  0  0  0  0  0  0  0  0  0  0
    2.1328    1.3199    0.0000 C    0  0  0  0  0  0  0  0  0  0  0  0
    1.7192    0.0508    0.0000 C    0  0  0  0  0  0  0  0  0  0  0  0
    2.7998    0.8344    0.0000 C    0  0  0  0  0  0  0  0  0  0  0  0
    2.5443    0.0501    0.0000 C    0  0  0  0  0  0  0  0  0  0  0  0
   -0.9789   -0.7829    0.0000 C    0  0  0  0  0  0  0  0  0  0  0  0
   -1.6052   -1.3199    0.0000 C    0  0  0  0  0  0  0  0  0  0  0  0
   -1.0083    0.0416    0.0000 C    0  0  0  0  0  0  0  0  0  0  0  0
   -2.4155   -1.1652    0.0000 C    0  0  0  0  0  0  0  0  0  0  0  0
   -1.6713    0.5326    0.0000 C    0  0  0  0  0  0  0  0  0  0  0  0
   -2.4686    0.3204    0.0000 C    0  0  0  0  0  0  0  0  0  0  0  0
   -2.7998   -0.4352    0.0000 C    0  0  0  0  0  0  0  0  0  0  0  0
  2  3  1  0  0
  2  4  1  0  0
  3  5  1  0  0
  4  6  1  0  0
  5  6  1  0  0
  7  8  1  0  0
  7  9  1  0  0
  8 10  1  0  0
  9 11  1  0  0
 10 13  1  0  0
 11 12  1  0  0
 12 13  1  0  0
  1  7  1  0  0
  4  1  1  0  0
  6  1  1  0  0
  5  1  1  0  0
  3  1  1  0  0
  2  1  1  0  0
  9  1  1  0  0
  8  1  1  0  0
 10  1  1  0  0
 11  1  1  0  0
 12  1  1  0  0
 13  1  1  0  0
M  END
> <NMREDATA_VERSION>
1.1

> <NMREDATA_LEVEL>
0

> <NMREDATA_SOLVENT>
pentane-d12

> <NMREDATA_TEMPERATURE>
300

> <NMREDATA_FORMULA>
C12H12Rh

> <NMREDATA_SMILES>
C12C3C4C5C6C7C1[Rh]189%10234567C2C1C9C%10C82

> <NMREDATA_ASSIGNMENT>
Rh1, -993.00, 1

> <NMREDATA_1D_103Rh>
-993.00, L=Rh1

$$$$
