
  ACD/LABS03132411492D

 46 52  0  0  0  0  0  0  0  0  1 V2000
    9.7366   -4.1903    0.0000 C    0  0  0  0  0  0  0  0  0  0  0  0
   10.8884   -3.5253    0.0000 C    0  0  0  0  0  0  0  0  0  0  0  0
    9.7366   -5.5203    0.0000 C    0  0  0  0  0  0  0  0  0  0  0  0
   12.0402   -4.1903    0.0000 C    0  0  0  0  0  0  0  0  0  0  0  0
   10.8884   -6.1853    0.0000 C    0  0  0  0  0  0  0  0  0  0  0  0
   12.0402   -5.5203    0.0000 C    0  0  0  0  0  0  0  0  0  0  0  0
    6.8984   -7.5153    0.0000 C    0  0  0  0  0  0  0  0  0  0  0  0
    7.5634   -6.3635    0.0000 C    0  0  0  0  0  0  0  0  0  0  0  0
    7.5634   -8.6671    0.0000 C    0  0  0  0  0  0  0  0  0  0  0  0
    8.8934   -6.3635    0.0000 C    0  0  0  0  0  0  0  0  0  0  0  0
    8.8934   -8.6671    0.0000 C    0  0  0  0  0  0  0  0  0  0  0  0
    9.5584   -7.5153    0.0000 C    0  0  0  0  0  0  0  0  0  0  0  0
   14.2134   -8.6671    0.0000 C    0  0  0  0  0  0  0  0  0  0  0  0
   12.8834   -8.6671    0.0000 C    0  0  0  0  0  0  0  0  0  0  0  0
   14.8784   -7.5153    0.0000 C    0  0  0  0  0  0  0  0  0  0  0  0
   12.2184   -7.5153    0.0000 C    0  0  0  0  0  0  0  0  0  0  0  0
   14.2134   -6.3635    0.0000 C    0  0  0  0  0  0  0  0  0  0  0  0
   12.8834   -6.3635    0.0000 C    0  0  0  0  0  0  0  0  0  0  0  0
    7.5634   -9.9971    0.0000 C    0  0  0  0  0  0  0  0  0  0  0  0
    6.2334   -9.9971    0.0000 C    0  0  0  0  0  0  0  0  0  0  0  0
    8.2284   -8.8453    0.0000 C    0  0  0  0  0  0  0  0  0  0  0  0
    5.5684   -8.8453    0.0000 C    0  0  0  0  0  0  0  0  0  0  0  0
    7.5634   -7.6935    0.0000 C    0  0  0  0  0  0  0  0  0  0  0  0
    6.2334   -7.6935    0.0000 C    0  0  0  0  0  0  0  0  0  0  0  0
    9.5584  -10.1753    0.0000 C    0  0  0  0  0  0  0  0  0  0  0  0
   10.7102  -10.8403    0.0000 C    0  0  0  0  0  0  0  0  0  0  0  0
    8.4066  -10.8403    0.0000 C    0  0  0  0  0  0  0  0  0  0  0  0
   10.7102  -12.1703    0.0000 C    0  0  0  0  0  0  0  0  0  0  0  0
    8.4066  -12.1703    0.0000 C    0  0  0  0  0  0  0  0  0  0  0  0
    9.5584  -12.8353    0.0000 C    0  0  0  0  0  0  0  0  0  0  0  0
    9.5584   -6.1853    0.0000 C    0  0  0  0  0  0  0  0  0  0  0  0
    8.4066   -5.5203    0.0000 C    0  0  0  0  0  0  0  0  0  0  0  0
   10.7102   -5.5203    0.0000 C    0  0  0  0  0  0  0  0  0  0  0  0
    8.4066   -4.1903    0.0000 C    0  0  0  0  0  0  0  0  0  0  0  0
   10.7102   -4.1903    0.0000 C    0  0  0  0  0  0  0  0  0  0  0  0
    9.5584   -3.5253    0.0000 C    0  0  0  0  0  0  0  0  0  0  0  0
   10.8884   -8.8453    0.0000 Rh   0  0  0  0  0  0  0  0  0  0  0  0
   10.8884   -7.5153    0.0000 P    0  0  0  0  0  0  0  0  0  0  0  0
    9.5584   -8.8453    0.0000 P    0  0  0  0  0  0  0  0  0  0  0  0
   12.2184   -8.8453    0.0000 Cl   0  0  0  0  0  0  0  0  0  0  0  0
   10.8884  -10.1753    0.0000 N    0  0  0  0  0  0  0  0  0  0  0  0
   12.0402  -10.8403    0.0000 C    0  0  0  0  0  0  0  0  0  0  0  0
    9.7366  -10.8403    0.0000 C    0  0  0  0  0  0  0  0  0  0  0  0
   12.0402  -12.1703    0.0000 C    0  0  0  0  0  0  0  0  0  0  0  0
    9.7366  -12.1703    0.0000 C    0  0  0  0  0  0  0  0  0  0  0  0
   10.8884  -12.8353    0.0000 C    0  0  0  0  0  0  0  0  0  0  0  0
  1  2  1  0  0  0  0
  1  3  2  0  0  0  0
  2  4  2  0  0  0  0
  3  5  1  0  0  0  0
  4  6  1  0  0  0  0
  5  6  2  0  0  0  0
  7  8  1  0  0  0  0
  7  9  2  0  0  0  0
  8 10  2  0  0  0  0
  9 11  1  0  0  0  0
 10 12  1  0  0  0  0
 11 12  2  0  0  0  0
 13 14  1  0  0  0  0
 13 15  2  0  0  0  0
 14 16  2  0  0  0  0
 15 17  1  0  0  0  0
 16 18  1  0  0  0  0
 17 18  2  0  0  0  0
 19 20  1  0  0  0  0
 19 21  2  0  0  0  0
 20 22  2  0  0  0  0
 21 23  1  0  0  0  0
 22 24  1  0  0  0  0
 23 24  2  0  0  0  0
 25 26  1  0  0  0  0
 25 27  2  0  0  0  0
 26 28  2  0  0  0  0
 27 29  1  0  0  0  0
 28 30  1  0  0  0  0
 29 30  2  0  0  0  0
 31 32  1  0  0  0  0
 31 33  2  0  0  0  0
 32 34  2  0  0  0  0
 33 35  1  0  0  0  0
 34 36  1  0  0  0  0
 35 36  2  0  0  0  0
 37 38  1  0  0  0  0
 37 39  1  0  0  0  0
 31 39  1  0  0  0  0
 25 39  1  0  0  0  0
 21 39  1  0  0  0  0
 16 38  1  0  0  0  0
 12 38  1  0  0  0  0
  5 38  1  0  0  0  0
 37 40  1  0  0  0  0
 41 42  1  0  0  0  0
 41 43  2  0  0  0  0
 42 44  2  0  0  0  0
 43 45  1  0  0  0  0
 44 46  1  0  0  0  0
 45 46  2  0  0  0  0
 37 41  1  0  0  0  0
M  END
> <NMREDATA_VERSION>
1.1

> <NMREDATA_LEVEL>
0

> <NMREDATA_SOLVENT>
toluene-d8

> <NMREDATA_TEMPERATURE>
247

> <NMREDATA_FORMULA>
C41H38ClNP2Rh

> <NMREDATA_SMILES>
Cl[Rh](P(c1ccccc1)(c1ccccc1)c1ccccc1)(P(c1ccccc1)(c1ccccc1)c1ccccc1)N1=CC=CC=C1

> <NMREDATA_ASSIGNMENT>
Rh37, 162.00, 37

> <NMREDATA_1D_103Rh>
162.00, L=Rh37

$$$$
