
  ACD/LABS04012414582D

 27 29  0  0  0  0  0  0  0  0  1 V2000
   11.8240  -12.1758    0.0000 Rh   0  0  0  0  0  0  0  0  0  0  0  0
   11.8240  -10.8392    0.0000 B    0  0  0  0  0  0  0  0  0  0  0  0
   13.1603  -10.8392    0.0000 N    0  0  0  0  0  0  0  0  0  0  0  0
   13.9444  -11.9174    0.0000 C    0  0  0  0  0  0  0  0  0  0  0  0
   13.9444   -9.7704    0.0000 N    0  0  0  0  0  0  0  0  0  0  0  0
   15.2097  -11.5076    0.0000 C    0  0  0  0  0  0  0  0  0  0  0  0
   15.2097  -10.1803    0.0000 C    0  0  0  0  0  0  0  0  0  0  0  0
   11.8240   -9.5118    0.0000 N    0  0  0  0  0  0  0  0  0  0  0  0
   10.7460   -8.7280    0.0000 C    0  0  0  0  0  0  0  0  0  0  0  0
   12.9020   -8.7280    0.0000 N    0  0  0  0  0  0  0  0  0  0  0  0
   11.1558   -7.4537    0.0000 C    0  0  0  0  0  0  0  0  0  0  0  0
   12.4832   -7.4537    0.0000 C    0  0  0  0  0  0  0  0  0  0  0  0
   10.4964  -10.8392    0.0000 N    0  0  0  0  0  0  0  0  0  0  0  0
    9.7035   -9.7704    0.0000 C    0  0  0  0  0  0  0  0  0  0  0  0
    9.7035  -11.9174    0.0000 N    0  0  0  0  0  0  0  0  0  0  0  0
    8.4383  -10.1803    0.0000 C    0  0  0  0  0  0  0  0  0  0  0  0
    8.4383  -11.5076    0.0000 C    0  0  0  0  0  0  0  0  0  0  0  0
   10.3717   -6.3755    0.0000 C    0  0  0  0  0  0  0  0  0  0  0  0
   13.2763   -6.3755    0.0000 C    0  0  0  0  0  0  0  0  0  0  0  0
   16.2966  -12.2918    0.0000 C    0  0  0  0  0  0  0  0  0  0  0  0
   16.2966   -9.3961    0.0000 C    0  0  0  0  0  0  0  0  0  0  0  0
    7.3513   -9.3961    0.0000 C    0  0  0  0  0  0  0  0  0  0  0  0
    7.3513  -12.2918    0.0000 C    0  0  0  0  0  0  0  0  0  0  0  0
   13.1603  -12.1758    0.0000 H    0  0  0  0  0  0  0  0  0  0  0  0
   10.4964  -12.1758    0.0000 H    0  0  0  0  0  0  0  0  0  0  0  0
   11.8240  -13.5123    0.0000 H    0  0  0  0  0  0  0  0  0  0  0  0
   12.9732  -14.1808    0.0000 H    0  0  0  0  0  0  0  0  0  0  0  0
  3  4  1  0  0  0  0
  3  5  1  0  0  0  0
  4  6  2  0  0  0  0
  5  7  2  0  0  0  0
  6  7  1  0  0  0  0
  2  3  1  0  0  0  0
  8  9  1  0  0  0  0
  8 10  1  0  0  0  0
  9 11  2  0  0  0  0
 10 12  2  0  0  0  0
 11 12  1  0  0  0  0
  2  8  1  0  0  0  0
 13 14  1  0  0  0  0
 13 15  1  0  0  0  0
 14 16  2  0  0  0  0
 15 17  2  0  0  0  0
 16 17  1  0  0  0  0
  2 13  1  0  0  0  0
 11 18  1  0  0  0  0
 12 19  1  0  0  0  0
  6 20  1  0  0  0  0
  7 21  1  0  0  0  0
 16 22  1  0  0  0  0
 17 23  1  0  0  0  0
  1  2  1  0  0  0  0
  1 24  1  0  0  0  0
  1 25  1  0  0  0  0
  1 26  1  0  0  0  0
 26 27  1  0  0  0  0
M  END
> <NMREDATA_VERSION>
1.1

> <NMREDATA_LEVEL>
0

> <NMREDATA_SOLVENT>
DCCl3/CD2Cl2

> <NMREDATA_TEMPERATURE>
253

> <NMREDATA_FORMULA>
C15H24BN6Rh

> <NMREDATA_SMILES>
[H][H][RhH2][B](n1nc(c(c1)C)C)(n1nc(c(c1)C)C)n1nc(c(c1)C)C

> <NMREDATA_ASSIGNMENT>
Rh1, 775.00, 1

> <NMREDATA_1D_103Rh>
775.00, L=Rh1

$$$$
