
  ACD/LABS03242411122D

 24 23  0  0  0  0  0  0  0  0  1 V2000
   18.2954   -2.4668    0.0000 O    0  0  0  0  0  0  0  0  0  0  0  0
   18.9364   -3.5769    0.0000 N    0  0  0  0  0  0  0  0  0  0  0  0
   18.2954   -4.6871    0.0000 C    0  0  0  0  0  0  0  0  0  0  0  0
   17.0135   -4.6871    0.0000 C    0  0  0  0  0  0  0  0  0  0  0  0
   18.9364   -5.7973    0.0000 C    0  0  0  0  0  0  0  0  0  0  0  0
   20.2183   -5.7973    0.0000 C    0  0  0  0  0  0  0  0  0  0  0  0
   18.2954   -6.9075    0.0000 N    0  0  0  0  0  0  0  0  0  0  0  0
   18.9364   -8.0177    0.0000 O    0  0  0  0  0  0  0  0  0  0  0  0
   12.5267  -12.4584    0.0000 O    0  0  0  0  0  0  0  0  0  0  0  0
   13.8087  -12.4584    0.0000 N    0  0  0  0  0  0  0  0  0  0  0  0
   14.4496  -11.3482    0.0000 C    0  0  0  0  0  0  0  0  0  0  0  0
   13.8087  -10.2380    0.0000 C    0  0  0  0  0  0  0  0  0  0  0  0
   15.7316  -11.3482    0.0000 C    0  0  0  0  0  0  0  0  0  0  0  0
   16.3725  -12.4584    0.0000 C    0  0  0  0  0  0  0  0  0  0  0  0
   16.3725  -10.2380    0.0000 N    0  0  0  0  0  0  0  0  0  0  0  0
   17.6544  -10.2380    0.0000 O    0  0  0  0  0  0  0  0  0  0  0  0
   18.2954   -9.1278    0.0000 Rh   0  0  0  0  0  0  0  0  0  0  0  0
   19.4056   -9.7688    0.0000 P    0  0  0  0  0  0  0  0  0  0  0  0
   17.1852   -8.4869    0.0000 C    0  0  0  0  0  0  0  0  0  0  0  0
   16.0750   -9.1278    0.0000 C    0  0  0  0  0  0  0  0  0  0  0  0
   14.9649   -8.4869    0.0000 C    0  0  0  0  0  0  0  0  0  0  0  0
   20.0466   -8.6586    0.0000 C    0  0  0  0  0  0  0  0  0  0  0  0
   18.7646  -10.8790    0.0000 C    0  0  0  0  0  0  0  0  0  0  0  0
   20.5158  -10.4098    0.0000 C    0  0  0  0  0  0  0  0  0  0  0  0
  1  2  1  0  0  0  0
  2  3  2  0  0  0  0
  3  4  1  0  0  0  0
  3  5  1  0  0  0  0
  5  6  1  0  0  0  0
  5  7  2  0  0  0  0
  7  8  1  0  0  0  0
  9 10  1  0  0  0  0
 10 11  2  0  0  0  0
 11 12  1  0  0  0  0
 11 13  1  0  0  0  0
 13 14  1  0  0  0  0
 13 15  2  0  0  0  0
 15 16  1  0  0  0  0
 16 17  1  0  0  0  0
  8 17  1  0  0  0  0
 17 18  1  0  0  0  0
 17 19  1  0  0  0  0
 19 20  1  0  0  0  0
 20 21  1  0  0  0  0
 18 22  1  0  0  0  0
 18 23  1  0  0  0  0
 18 24  1  0  0  0  0
M  END
> <NMREDATA_VERSION>
1.1

> <NMREDATA_LEVEL>
0

> <NMREDATA_SOLVENT>
DCCl3

> <NMREDATA_TEMPERATURE>
298

> <NMREDATA_FORMULA>
C14H31N4O4PRh

> <NMREDATA_SMILES>
CCC[Rh](P(C)(C)C)(O/N=C(/C(=N/O)/C)\C)O/N=C(/C(=N/O)/C)\C

> <NMREDATA_ASSIGNMENT>
Rh17, 1933.00, 17

> <NMREDATA_1D_103Rh>
1933.00, L=Rh17

$$$$
