
  ACD/LABS03112411152D

 42 47  0  0  0  0  0  0  0  0  1 V2000
   12.1924  -19.5254    0.0000 C    0  0  0  0  0  0  0  0  0  0  0  0
   12.1924  -20.8554    0.0000 C    0  0  0  0  0  0  0  0  0  0  0  0
   11.0405  -18.8604    0.0000 C    0  0  0  0  0  0  0  0  0  0  0  0
   11.0405  -21.5204    0.0000 C    0  0  0  0  0  0  0  0  0  0  0  0
    9.8888  -19.5254    0.0000 C    0  0  0  0  0  0  0  0  0  0  0  0
    9.8888  -20.8554    0.0000 C    0  0  0  0  0  0  0  0  0  0  0  0
    9.1479  -19.2209    0.0000 C    0  0  0  0  0  0  0  0  0  0  0  0
    9.1479  -20.5509    0.0000 C    0  0  0  0  0  0  0  0  0  0  0  0
    7.9960  -18.5559    0.0000 C    0  0  0  0  0  0  0  0  0  0  0  0
    7.9960  -21.2159    0.0000 C    0  0  0  0  0  0  0  0  0  0  0  0
    6.8442  -19.2209    0.0000 C    0  0  0  0  0  0  0  0  0  0  0  0
    6.8442  -20.5509    0.0000 C    0  0  0  0  0  0  0  0  0  0  0  0
    7.4493  -16.7532    0.0000 C    0  0  0  0  0  0  0  0  0  0  0  0
    7.4493  -18.0832    0.0000 C    0  0  0  0  0  0  0  0  0  0  0  0
    6.2974  -16.0882    0.0000 C    0  0  0  0  0  0  0  0  0  0  0  0
    6.2974  -18.7482    0.0000 C    0  0  0  0  0  0  0  0  0  0  0  0
    5.1456  -16.7532    0.0000 C    0  0  0  0  0  0  0  0  0  0  0  0
    5.1456  -18.0832    0.0000 C    0  0  0  0  0  0  0  0  0  0  0  0
   19.8359  -15.4392    0.0000 C    0  0  0  0  0  0  0  0  0  0  0  0
   19.8359  -16.7692    0.0000 C    0  0  0  0  0  0  0  0  0  0  0  0
   18.6840  -14.7742    0.0000 C    0  0  0  0  0  0  0  0  0  0  0  0
   18.6840  -17.4342    0.0000 C    0  0  0  0  0  0  0  0  0  0  0  0
   17.5323  -15.4392    0.0000 C    0  0  0  0  0  0  0  0  0  0  0  0
   17.5323  -16.7692    0.0000 C    0  0  0  0  0  0  0  0  0  0  0  0
   19.8359  -12.1703    0.0000 C    0  0  0  0  0  0  0  0  0  0  0  0
   19.8359  -13.5003    0.0000 C    0  0  0  0  0  0  0  0  0  0  0  0
   18.6840  -11.5053    0.0000 C    0  0  0  0  0  0  0  0  0  0  0  0
   18.6840  -14.1653    0.0000 C    0  0  0  0  0  0  0  0  0  0  0  0
   17.5323  -12.1703    0.0000 C    0  0  0  0  0  0  0  0  0  0  0  0
   17.5323  -13.5003    0.0000 C    0  0  0  0  0  0  0  0  0  0  0  0
   17.2400  -10.4237    0.0000 C    0  0  0  0  0  0  0  0  0  0  0  0
   17.2400  -11.7537    0.0000 C    0  0  0  0  0  0  0  0  0  0  0  0
   16.0881   -9.7587    0.0000 C    0  0  0  0  0  0  0  0  0  0  0  0
   16.0881  -12.4187    0.0000 C    0  0  0  0  0  0  0  0  0  0  0  0
   14.9364  -10.4237    0.0000 C    0  0  0  0  0  0  0  0  0  0  0  0
   14.9364  -11.7537    0.0000 C    0  0  0  0  0  0  0  0  0  0  0  0
   12.4828  -16.0241    0.0000 Rh   0  0  0  0  0  0  0  0  0  0  0  0
   15.1588  -14.6621    0.0000 P    0  0  0  0  0  0  0  0  0  0  0  0
   10.2875  -17.4663    0.0000 P    0  0  0  0  0  0  0  0  0  0  0  0
   11.2329  -14.9825    0.0000 O    0  0  0  0  0  0  0  0  0  0  0  0
   13.6686  -17.2099    0.0000 C    0  0  0  0  0  0  0  0  0  0  0  0
   15.1588  -18.4758    0.0000 O    0  0  0  0  0  0  0  0  0  0  0  0
  1  2  1  0  0  0  0
  1  3  2  0  0  0  0
  2  4  2  0  0  0  0
  3  5  1  0  0  0  0
  4  6  1  0  0  0  0
  5  6  2  0  0  0  0
  7  8  1  0  0  0  0
  7  9  2  0  0  0  0
  8 10  2  0  0  0  0
  9 11  1  0  0  0  0
 10 12  1  0  0  0  0
 11 12  2  0  0  0  0
 13 14  1  0  0  0  0
 13 15  2  0  0  0  0
 14 16  2  0  0  0  0
 15 17  1  0  0  0  0
 16 18  1  0  0  0  0
 17 18  2  0  0  0  0
 19 20  1  0  0  0  0
 19 21  2  0  0  0  0
 20 22  2  0  0  0  0
 21 23  1  0  0  0  0
 22 24  1  0  0  0  0
 23 24  2  0  0  0  0
 25 26  1  0  0  0  0
 25 27  2  0  0  0  0
 26 28  2  0  0  0  0
 27 29  1  0  0  0  0
 28 30  1  0  0  0  0
 29 30  2  0  0  0  0
 31 32  1  0  0  0  0
 31 33  2  0  0  0  0
 32 34  2  0  0  0  0
 33 35  1  0  0  0  0
 34 36  1  0  0  0  0
 35 36  2  0  0  0  0
 37 38  1  0  0  0  0
 37 39  1  0  0  0  0
 34 38  1  0  0  0  0
 30 38  1  0  0  0  0
 23 38  1  0  0  0  0
 13 39  1  0  0  0  0
  9 39  1  0  0  0  0
  3 39  1  0  0  0  0
 37 40  1  0  0  0  0
 37 41  1  0  0  0  0
 41 42  3  0  0  0  0
M  END
> <NMREDATA_VERSION>
1.1

> <NMREDATA_LEVEL>
0

> <NMREDATA_SOLVENT>
CD2Cl2

> <NMREDATA_TEMPERATURE>
253

> <NMREDATA_FORMULA>
C37H33O2P2Rh

> <NMREDATA_SMILES>
[O]#C[Rh](P(c1ccccc1)(c1ccccc1)c1ccccc1)(P(c1ccccc1)(c1ccccc1)c1ccccc1)O

> <NMREDATA_ASSIGNMENT>
Rh37, -300.00, 37

> <NMREDATA_1D_103Rh>
-300.00, L=Rh37

$$$$
