
  ACD/LABS03112411052D

 62 70  0  0  0  0  0  0  0  0  1 V2000
   12.5931  -18.6921    0.0000 C    0  0  0  0  0  0  0  0  0  0  0  0
   12.5931  -20.0221    0.0000 C    0  0  0  0  0  0  0  0  0  0  0  0
   11.4411  -18.0271    0.0000 C    0  0  0  0  0  0  0  0  0  0  0  0
   11.4411  -20.6871    0.0000 C    0  0  0  0  0  0  0  0  0  0  0  0
   10.2894  -18.6921    0.0000 C    0  0  0  0  0  0  0  0  0  0  0  0
   10.2894  -20.0221    0.0000 C    0  0  0  0  0  0  0  0  0  0  0  0
    9.7247  -18.7242    0.0000 C    0  0  0  0  0  0  0  0  0  0  0  0
    9.7247  -20.0542    0.0000 C    0  0  0  0  0  0  0  0  0  0  0  0
    8.5728  -18.0592    0.0000 C    0  0  0  0  0  0  0  0  0  0  0  0
    8.5728  -20.7192    0.0000 C    0  0  0  0  0  0  0  0  0  0  0  0
    7.4211  -18.7242    0.0000 C    0  0  0  0  0  0  0  0  0  0  0  0
    7.4211  -20.0542    0.0000 C    0  0  0  0  0  0  0  0  0  0  0  0
    6.8724  -21.2399    0.0000 C    0  0  0  0  0  0  0  0  0  0  0  0
    6.8724  -22.5699    0.0000 C    0  0  0  0  0  0  0  0  0  0  0  0
    5.7205  -20.5749    0.0000 C    0  0  0  0  0  0  0  0  0  0  0  0
    5.7205  -23.2349    0.0000 C    0  0  0  0  0  0  0  0  0  0  0  0
    4.5688  -21.2399    0.0000 C    0  0  0  0  0  0  0  0  0  0  0  0
    4.5688  -22.5699    0.0000 C    0  0  0  0  0  0  0  0  0  0  0  0
   14.5961  -28.8354    0.0000 C    0  0  0  0  0  0  0  0  0  0  0  0
   14.5961  -30.1654    0.0000 C    0  0  0  0  0  0  0  0  0  0  0  0
   13.4442  -28.1704    0.0000 C    0  0  0  0  0  0  0  0  0  0  0  0
   13.4442  -30.8304    0.0000 C    0  0  0  0  0  0  0  0  0  0  0  0
   12.2924  -28.8354    0.0000 C    0  0  0  0  0  0  0  0  0  0  0  0
   12.2924  -30.1654    0.0000 C    0  0  0  0  0  0  0  0  0  0  0  0
   11.2791  -28.6751    0.0000 C    0  0  0  0  0  0  0  0  0  0  0  0
   11.2791  -30.0051    0.0000 C    0  0  0  0  0  0  0  0  0  0  0  0
   10.1272  -28.0101    0.0000 C    0  0  0  0  0  0  0  0  0  0  0  0
   10.1272  -30.6701    0.0000 C    0  0  0  0  0  0  0  0  0  0  0  0
    8.9754  -28.6751    0.0000 C    0  0  0  0  0  0  0  0  0  0  0  0
    8.9754  -30.0051    0.0000 C    0  0  0  0  0  0  0  0  0  0  0  0
    9.7888  -25.8709    0.0000 C    0  0  0  0  0  0  0  0  0  0  0  0
    9.7888  -27.2009    0.0000 C    0  0  0  0  0  0  0  0  0  0  0  0
    8.6369  -25.2059    0.0000 C    0  0  0  0  0  0  0  0  0  0  0  0
    8.6369  -27.8659    0.0000 C    0  0  0  0  0  0  0  0  0  0  0  0
    7.4851  -25.8709    0.0000 C    0  0  0  0  0  0  0  0  0  0  0  0
    7.4851  -27.2009    0.0000 C    0  0  0  0  0  0  0  0  0  0  0  0
   20.9576  -24.3646    0.0000 C    0  0  0  0  0  0  0  0  0  0  0  0
   20.9576  -25.6946    0.0000 C    0  0  0  0  0  0  0  0  0  0  0  0
   19.8057  -23.6996    0.0000 C    0  0  0  0  0  0  0  0  0  0  0  0
   19.8057  -26.3596    0.0000 C    0  0  0  0  0  0  0  0  0  0  0  0
   18.6539  -24.3646    0.0000 C    0  0  0  0  0  0  0  0  0  0  0  0
   18.6539  -25.6946    0.0000 C    0  0  0  0  0  0  0  0  0  0  0  0
   19.8520  -20.5990    0.0000 C    0  0  0  0  0  0  0  0  0  0  0  0
   19.8520  -21.9290    0.0000 C    0  0  0  0  0  0  0  0  0  0  0  0
   18.7001  -19.9340    0.0000 C    0  0  0  0  0  0  0  0  0  0  0  0
   18.7001  -22.5940    0.0000 C    0  0  0  0  0  0  0  0  0  0  0  0
   17.5483  -20.5990    0.0000 C    0  0  0  0  0  0  0  0  0  0  0  0
   17.5483  -21.9290    0.0000 C    0  0  0  0  0  0  0  0  0  0  0  0
   16.6311  -18.9165    0.0000 C    0  0  0  0  0  0  0  0  0  0  0  0
   16.6311  -20.2465    0.0000 C    0  0  0  0  0  0  0  0  0  0  0  0
   15.4792  -18.2515    0.0000 C    0  0  0  0  0  0  0  0  0  0  0  0
   15.4792  -20.9115    0.0000 C    0  0  0  0  0  0  0  0  0  0  0  0
   14.3274  -18.9165    0.0000 C    0  0  0  0  0  0  0  0  0  0  0  0
   14.3274  -20.2465    0.0000 C    0  0  0  0  0  0  0  0  0  0  0  0
   14.0051  -24.9976    0.0000 Rh   0  0  0  0  0  0  0  0  0  0  0  0
   16.0241  -23.2990    0.0000 P    0  0  0  0  0  0  0  0  0  0  0  0
   12.3546  -26.3436    0.0000 P    0  0  0  0  0  0  0  0  0  0  0  0
   15.2229  -26.1033    0.0000 C    0  0  0  0  0  0  0  0  0  0  0  0
   16.5208  -27.0327    0.0000 O    0  0  0  0  0  0  0  0  0  0  0  0
   13.1567  -23.9733    0.0000 N    0  0  0  0  0  0  0  0  0  0  0  0
   12.3083  -22.9491    0.0000 C    0  0  0  0  0  0  0  0  0  0  0  0
   11.4252  -21.9370    0.0000 B    0  0  0  0  0  0  0  0  0  0  0  0
  1  2  1  0  0  0  0
  1  3  2  0  0  0  0
  2  4  2  0  0  0  0
  3  5  1  0  0  0  0
  4  6  1  0  0  0  0
  5  6  2  0  0  0  0
  7  8  1  0  0  0  0
  7  9  2  0  0  0  0
  8 10  2  0  0  0  0
  9 11  1  0  0  0  0
 10 12  1  0  0  0  0
 11 12  2  0  0  0  0
 13 14  1  0  0  0  0
 13 15  2  0  0  0  0
 14 16  2  0  0  0  0
 15 17  1  0  0  0  0
 16 18  1  0  0  0  0
 17 18  2  0  0  0  0
 19 20  1  0  0  0  0
 19 21  2  0  0  0  0
 20 22  2  0  0  0  0
 21 23  1  0  0  0  0
 22 24  1  0  0  0  0
 23 24  2  0  0  0  0
 25 26  1  0  0  0  0
 25 27  2  0  0  0  0
 26 28  2  0  0  0  0
 27 29  1  0  0  0  0
 28 30  1  0  0  0  0
 29 30  2  0  0  0  0
 31 32  1  0  0  0  0
 31 33  2  0  0  0  0
 32 34  2  0  0  0  0
 33 35  1  0  0  0  0
 34 36  1  0  0  0  0
 35 36  2  0  0  0  0
 37 38  1  0  0  0  0
 37 39  2  0  0  0  0
 38 40  2  0  0  0  0
 39 41  1  0  0  0  0
 40 42  1  0  0  0  0
 41 42  2  0  0  0  0
 43 44  1  0  0  0  0
 43 45  2  0  0  0  0
 44 46  2  0  0  0  0
 45 47  1  0  0  0  0
 46 48  1  0  0  0  0
 47 48  2  0  0  0  0
 49 50  1  0  0  0  0
 49 51  2  0  0  0  0
 50 52  2  0  0  0  0
 51 53  1  0  0  0  0
 52 54  1  0  0  0  0
 53 54  2  0  0  0  0
 55 56  1  0  0  0  0
 55 57  1  0  0  0  0
 52 56  1  0  0  0  0
 48 56  1  0  0  0  0
 41 56  1  0  0  0  0
 32 57  1  0  0  0  0
 25 57  1  0  0  0  0
 21 57  1  0  0  0  0
 55 58  1  0  0  0  0
 58 59  3  0  0  0  0
 60 61  3  0  0  0  0
 55 60  1  0  0  0  0
 61 62  1  0  0  0  0
 14 62  1  0  0  0  0
  8 62  1  0  0  0  0
  4 62  1  0  0  0  0
M  END
> <NMREDATA_VERSION>
1.1

> <NMREDATA_LEVEL>
0

> <NMREDATA_SOLVENT>
DCCl3

> <NMREDATA_TEMPERATURE>
300

> <NMREDATA_FORMULA>
C56H48BNOP2Rh

> <NMREDATA_SMILES>
[O]#C[Rh](P(c1ccccc1)(c1ccccc1)c1ccccc1)(P(c1ccccc1)(c1ccccc1)c1ccccc1)N#C[B](c1ccccc1)(c1ccccc1)c1ccccc1

> <NMREDATA_ASSIGNMENT>
Rh55, -475.00, 55

> <NMREDATA_1D_103Rh>
-475.00, L=Rh55

$$$$
