
  ACD/LABS04022409512D

 62 68  0  0  0  0  0  0  0  0  2 V2000
   16.4530   -9.9680    0.0000 C    0  0  0  0  0  0  0  0  0  0  0  0
   16.2191  -11.2775    0.0000 C    0  0  0  0  0  0  0  0  0  0  0  0
   15.4313   -9.1118    0.0000 C    0  0  0  0  0  0  0  0  0  0  0  0
   14.9641  -11.7308    0.0000 C    0  0  0  0  0  0  0  0  0  0  0  0
   14.1880   -9.5618    0.0000 C    0  0  0  0  0  0  0  0  0  0  0  0
   13.9469  -10.8668    0.0000 C    0  0  0  0  0  0  0  0  0  0  0  0
   16.3733   -3.8787    0.0000 C    0  0  0  0  0  0  0  0  0  0  0  0
   17.3902   -4.7426    0.0000 C    0  0  0  0  0  0  0  0  0  0  0  0
   15.1179   -4.3322    0.0000 C    0  0  0  0  0  0  0  0  0  0  0  0
   17.1567   -6.0520    0.0000 C    0  0  0  0  0  0  0  0  0  0  0  0
   14.8844   -5.6415    0.0000 C    0  0  0  0  0  0  0  0  0  0  0  0
   15.9058   -6.4975    0.0000 C    0  0  0  0  0  0  0  0  0  0  0  0
   18.5646   -7.8176    0.0000 Rh   0  3  0  0  0  0  0  0  0  0  0  0
   19.2300   -6.6651    0.0000 O    0  0  0  0  0  0  0  0  0  0  0  0
   18.5797   -5.5215    0.0000 O    0  0  0  0  0  0  0  0  0  0  0  0
   15.6769   -7.7990    0.0000 P    0  0  0  0  0  0  0  0  0  0  0  0
   14.3597   -7.5610    0.0000 C    0  0  0  0  0  0  0  0  0  0  0  0
   13.5035   -8.5827    0.0000 C    0  0  0  0  0  0  0  0  0  0  0  0
   12.1941   -8.3492    0.0000 O    0  0  0  0  0  0  0  0  0  0  0  0
   11.3349   -9.3587    0.0000 C    0  0  0  0  0  0  0  0  0  0  0  0
   19.2187   -8.9739    0.0000 P    0  0  0  0  0  0  0  0  0  0  0  0
   20.0712   -9.9986    0.0000 C    0  0  0  0  0  0  0  0  0  0  0  0
   19.6115  -11.2384    0.0000 C    0  0  0  0  0  0  0  0  0  0  0  0
   21.3759   -9.7789    0.0000 C    0  0  0  0  0  0  0  0  0  0  0  0
   20.4563  -12.2591    0.0000 C    0  0  0  0  0  0  0  0  0  0  0  0
   22.2287  -10.8038    0.0000 C    0  0  0  0  0  0  0  0  0  0  0  0
   21.7688  -12.0435    0.0000 C    0  0  0  0  0  0  0  0  0  0  0  0
   20.2436   -8.1211    0.0000 C    0  0  0  0  0  0  0  0  0  0  0  0
   21.4916   -8.5854    0.0000 C    0  0  0  0  0  0  0  0  0  0  0  0
   20.0239   -6.8164    0.0000 C    0  0  0  0  0  0  0  0  0  0  0  0
   22.5120   -7.7405    0.0000 C    0  0  0  0  0  0  0  0  0  0  0  0
   21.0488   -5.9636    0.0000 C    0  0  0  0  0  0  0  0  0  0  0  0
   22.2966   -6.4282    0.0000 C    0  0  0  0  0  0  0  0  0  0  0  0
   18.1982   -9.8183    0.0000 C    0  0  0  0  0  0  0  0  0  0  0  0
   18.1902  -11.1451    0.0000 C    0  0  0  0  0  0  0  0  0  0  0  0
   17.0343  -11.7991    0.0000 O    0  0  0  0  0  0  0  0  0  0  0  0
   17.0294  -13.1382    0.0000 C    0  0  0  0  0  0  0  0  0  0  0  0
   31.1508  -10.8623    0.0000 C    0  0  0  0  0  0  0  0  0  0  0  0
   30.4858  -12.0142    0.0000 C    0  0  0  0  0  0  0  0  0  0  0  0
   30.4858   -9.7105    0.0000 C    0  0  0  0  0  0  0  0  0  0  0  0
   29.1558  -12.0142    0.0000 C    0  0  0  0  0  0  0  0  0  0  0  0
   29.1558   -9.7105    0.0000 C    0  0  0  0  0  0  0  0  0  0  0  0
   28.4908  -10.8623    0.0000 C    0  0  0  0  0  0  0  0  0  0  0  0
   28.4908   -8.5587    0.0000 B    0  5  0  0  0  0  0  0  0  0  0  0
   29.6427   -7.8937    0.0000 C    0  0  0  0  0  0  0  0  0  0  0  0
   29.6427   -6.5637    0.0000 C    0  0  0  0  0  0  0  0  0  0  0  0
   30.7945   -8.5587    0.0000 C    0  0  0  0  0  0  0  0  0  0  0  0
   30.7945   -5.8987    0.0000 C    0  0  0  0  0  0  0  0  0  0  0  0
   31.9463   -7.8937    0.0000 C    0  0  0  0  0  0  0  0  0  0  0  0
   31.9463   -6.5637    0.0000 C    0  0  0  0  0  0  0  0  0  0  0  0
   27.3390   -9.2237    0.0000 C    0  0  0  0  0  0  0  0  0  0  0  0
   27.3390  -10.5537    0.0000 C    0  0  0  0  0  0  0  0  0  0  0  0
   26.1872   -8.5587    0.0000 C    0  0  0  0  0  0  0  0  0  0  0  0
   26.1872  -11.2187    0.0000 C    0  0  0  0  0  0  0  0  0  0  0  0
   25.0354   -9.2237    0.0000 C    0  0  0  0  0  0  0  0  0  0  0  0
   25.0354  -10.5537    0.0000 C    0  0  0  0  0  0  0  0  0  0  0  0
   27.8258   -7.4069    0.0000 C    0  0  0  0  0  0  0  0  0  0  0  0
   26.4958   -7.4069    0.0000 C    0  0  0  0  0  0  0  0  0  0  0  0
   28.4908   -6.2551    0.0000 C    0  0  0  0  0  0  0  0  0  0  0  0
   25.8308   -6.2551    0.0000 C    0  0  0  0  0  0  0  0  0  0  0  0
   27.8258   -5.1033    0.0000 C    0  0  0  0  0  0  0  0  0  0  0  0
   26.4958   -5.1033    0.0000 C    0  0  0  0  0  0  0  0  0  0  0  0
  1  2  1  0  0  0  0
  1  3  1  0  0  0  0
  2  4  1  0  0  0  0
  3  5  1  0  0  0  0
  4  6  1  0  0  0  0
  5  6  1  0  0  0  0
  7  8  1  0  0  0  0
  7  9  1  0  0  0  0
  8 10  1  0  0  0  0
  9 11  1  0  0  0  0
 10 12  1  0  0  0  0
 11 12  1  0  0  0  0
 13 14  1  0  0  0  0
 14 15  2  0  0  0  0
 13 16  1  0  0  0  0
 12 16  1  0  0  0  0
  3 16  1  0  0  0  0
 16 17  1  0  0  0  0
 17 18  1  0  0  0  0
 18 19  1  0  0  0  0
 19 20  1  0  0  0  0
 13 21  1  0  0  0  0
 22 23  1  0  0  0  0
 22 24  1  0  0  0  0
 23 25  1  0  0  0  0
 24 26  1  0  0  0  0
 25 27  1  0  0  0  0
 26 27  1  0  0  0  0
 21 22  1  0  0  0  0
 28 29  1  0  0  0  0
 28 30  1  0  0  0  0
 29 31  1  0  0  0  0
 30 32  1  0  0  0  0
 31 33  1  0  0  0  0
 32 33  1  0  0  0  0
 21 28  1  0  0  0  0
 21 34  1  0  0  0  0
 34 35  1  0  0  0  0
 35 36  1  0  0  0  0
 36 37  1  0  0  0  0
 38 39  1  0  0  0  0
 38 40  2  0  0  0  0
 39 41  2  0  0  0  0
 40 42  1  0  0  0  0
 41 43  1  0  0  0  0
 42 43  2  0  0  0  0
 45 46  1  0  0  0  0
 45 47  2  0  0  0  0
 46 48  2  0  0  0  0
 47 49  1  0  0  0  0
 48 50  1  0  0  0  0
 49 50  2  0  0  0  0
 44 45  1  0  0  0  0
 51 52  1  0  0  0  0
 51 53  2  0  0  0  0
 52 54  2  0  0  0  0
 53 55  1  0  0  0  0
 54 56  1  0  0  0  0
 55 56  2  0  0  0  0
 44 51  1  0  0  0  0
 57 58  1  0  0  0  0
 57 59  2  0  0  0  0
 58 60  2  0  0  0  0
 59 61  1  0  0  0  0
 60 62  1  0  0  0  0
 61 62  2  0  0  0  0
 44 57  1  0  0  0  0
 42 44  1  0  0  0  0
M  END
> <NMREDATA_VERSION>
1.1

> <NMREDATA_LEVEL>
0

> <NMREDATA_SOLVENT>
CD2Cl2

> <NMREDATA_TEMPERATURE>
243

> <NMREDATA_FORMULA>
C54H80BO4P2Rh

> <NMREDATA_SMILES>
c1ccc(cc1)[B](c1ccccc1)(c1ccccc1)c1ccccc1.COCCP([Rh](P(C1CCCCC1)(C1CCCCC1)CCOC)[O]=O)(C1CCCCC1)C1CCCCC1

> <NMREDATA_ASSIGNMENT>
Rh13, 3770.00, 13

> <NMREDATA_1D_103Rh>
3770.00, L=Rh13

$$$$
