
  ACD/LABS02222414132D

 13 13  0  0  0  0  0  0  0  0  1 V2000
   13.9596   -8.1834    0.0000 C    0  0  0  0  0  0  0  0  0  0  0  0
   12.8125   -8.8457    0.0000 C    0  0  0  0  0  0  0  0  0  0  0  0
   14.9571   -9.0756    0.0000 C    0  0  0  0  0  0  0  0  0  0  0  0
   13.0940  -10.1513    0.0000 C    0  0  0  0  0  0  0  0  0  0  0  0
   14.4168  -10.2909    0.0000 C    0  0  0  0  0  0  0  0  0  0  0  0
   15.6243  -10.8357    0.0000 Rh   0  0  0  0  0  0  0  0  0  0  0  0
   15.7714  -12.1571    0.0000 C    0  0  0  0  0  0  0  0  0  0  0  0
   16.7079  -10.0457    0.0000 C    0  0  0  0  0  0  0  0  0  0  0  0
   15.9108  -13.4831    0.0000 O    0  0  0  0  0  0  0  0  0  0  0  0
   17.7841   -9.2603    0.0000 O    0  0  0  0  0  0  0  0  0  0  0  0
   14.0552  -11.5671    0.0000 C    0  0  0  0  0  0  0  0  0  0  0  0
   14.9769  -12.5235    0.0000 O    0  0  0  0  0  0  0  0  0  0  0  0
   12.7610  -11.9039    0.0000 C    0  0  0  0  0  0  0  0  0  0  0  0
  1  2  1  0  0  0  0
  1  3  2  0  0  0  0
  2  4  2  0  0  0  0
  3  5  1  0  0  0  0
  4  5  1  0  0  0  0
  5  6  1  0  0  0  0
  6  7  1  0  0  0  0
  6  8  1  0  0  0  0
  7  9  3  0  0  0  0
  8 10  3  0  0  0  0
  5 11  1  0  0  0  0
 11 12  2  0  0  0  0
 11 13  1  0  0  0  0
M  END
> <NMREDATA_VERSION>
1.1

> <NMREDATA_LEVEL>
0

> <NMREDATA_SOLVENT>
C6D6

> <NMREDATA_TEMPERATURE>
298

> <NMREDATA_FORMULA>
C9H7O3Rh

> <NMREDATA_SMILES>
[O]#C[Rh](C1(C=CC=C1)C(=O)C)C#[O]

> <NMREDATA_ASSIGNMENT>
Rh6, -1207.00, 6

> <NMREDATA_1D_103Rh>
-1207.00, L=Rh6

$$$$
