
  ACD/LABS03132412292D

 42 45  0  0  0  0  0  0  0  0  1 V2000
   13.7154   -7.0384    0.0000 Rh   0  0  0  0  0  0  0  0  0  0  0  0
   17.8679   -8.5922    0.0000 C    0  0  0  0  0  0  0  0  0  0  0  0
   18.7163   -9.6180    0.0000 C    0  0  0  0  0  0  0  0  0  0  0  0
   18.3255   -7.3452    0.0000 C    0  0  0  0  0  0  0  0  0  0  0  0
   20.0218   -9.3966    0.0000 C    0  0  0  0  0  0  0  0  0  0  0  0
   19.6387   -7.1194    0.0000 C    0  0  0  0  0  0  0  0  0  0  0  0
   20.4868   -8.1453    0.0000 C    0  0  0  0  0  0  0  0  0  0  0  0
   17.6729   -6.1971    0.0000 P    0  0  0  0  0  0  0  0  0  0  0  0
   16.3455   -6.1856    0.0000 C    0  0  0  0  0  0  0  0  0  0  0  0
   15.6719   -7.3421    0.0000 C    0  0  0  0  0  0  0  0  0  0  0  0
   15.6803   -5.0336    0.0000 C    0  0  0  0  0  0  0  0  0  0  0  0
   18.3432   -5.0527    0.0000 C    0  0  0  0  0  0  0  0  0  0  0  0
   17.6857   -3.8962    0.0000 C    0  0  0  0  0  0  0  0  0  0  0  0
   19.6739   -5.0520    0.0000 C    0  0  0  0  0  0  0  0  0  0  0  0
   15.1374   -9.5545    0.0000 B    0  0  0  0  0  0  0  0  0  0  0  0
   15.7947  -10.7107    0.0000 C    0  0  0  0  0  0  0  0  0  0  0  0
   17.1143  -10.7270    0.0000 C    0  0  0  0  0  0  0  0  0  0  0  0
   15.1172  -11.8596    0.0000 C    0  0  0  0  0  0  0  0  0  0  0  0
   17.7639  -11.8876    0.0000 C    0  0  0  0  0  0  0  0  0  0  0  0
   15.7668  -13.0202    0.0000 C    0  0  0  0  0  0  0  0  0  0  0  0
   17.1017  -13.0277    0.0000 C    0  0  0  0  0  0  0  0  0  0  0  0
   12.2827  -10.0358    0.0000 C    0  0  0  0  0  0  0  0  0  0  0  0
   11.6298   -8.8873    0.0000 C    0  0  0  0  0  0  0  0  0  0  0  0
   11.6123  -11.1801    0.0000 C    0  0  0  0  0  0  0  0  0  0  0  0
   10.2992   -8.8880    0.0000 C    0  0  0  0  0  0  0  0  0  0  0  0
   10.2817  -11.1808    0.0000 C    0  0  0  0  0  0  0  0  0  0  0  0
    9.6288  -10.0323    0.0000 C    0  0  0  0  0  0  0  0  0  0  0  0
   12.2698  -12.3366    0.0000 P    0  0  0  0  0  0  0  0  0  0  0  0
   11.4132  -13.3533    0.0000 C    0  0  0  0  0  0  0  0  0  0  0  0
   11.8618  -14.6094    0.0000 C    0  0  0  0  0  0  0  0  0  0  0  0
   10.1000  -13.1184    0.0000 C    0  0  0  0  0  0  0  0  0  0  0  0
   13.5972  -12.3481    0.0000 C    0  0  0  0  0  0  0  0  0  0  0  0
   14.2545  -13.5042    0.0000 C    0  0  0  0  0  0  0  0  0  0  0  0
   14.2752  -11.1992    0.0000 C    0  0  0  0  0  0  0  0  0  0  0  0
   14.5764   -6.0294    0.0000 Cl   0  0  0  0  0  0  0  0  0  0  0  0
   12.4762   -6.5766    0.0000 N    0  0  0  0  0  0  0  0  0  0  0  0
   12.2507   -5.2633    0.0000 C    0  0  0  0  0  0  0  0  0  0  0  0
   11.4506   -7.4245    0.0000 C    0  0  0  0  0  0  0  0  0  0  0  0
   11.0069   -4.7935    0.0000 C    0  0  0  0  0  0  0  0  0  0  0  0
   10.2070   -6.9551    0.0000 C    0  0  0  0  0  0  0  0  0  0  0  0
    9.9811   -5.6419    0.0000 C    0  0  0  0  0  0  0  0  0  0  0  0
    8.7341   -5.1843    0.0000 C    0  0  0  0  0  0  0  0  0  0  0  0
  2  3  1  0  0  0  0
  2  4  2  0  0  0  0
  3  5  2  0  0  0  0
  4  6  1  0  0  0  0
  5  7  1  0  0  0  0
  6  7  2  0  0  0  0
  4  8  1  0  0  0  0
  9 10  1  0  0  0  0
  9 11  1  0  0  0  0
  8  9  1  0  0  0  0
 12 13  1  0  0  0  0
 12 14  1  0  0  0  0
  8 12  1  0  0  0  0
 16 17  1  0  0  0  0
 16 18  2  0  0  0  0
 17 19  2  0  0  0  0
 18 20  1  0  0  0  0
 19 21  1  0  0  0  0
 20 21  2  0  0  0  0
 15 16  1  0  0  0  0
 22 23  1  0  0  0  0
 22 24  2  0  0  0  0
 23 25  2  0  0  0  0
 24 26  1  0  0  0  0
 25 27  1  0  0  0  0
 26 27  2  0  0  0  0
 15 22  1  0  0  0  0
 24 28  1  0  0  0  0
 29 30  1  0  0  0  0
 29 31  1  0  0  0  0
 28 29  1  0  0  0  0
 32 33  1  0  0  0  0
 32 34  1  0  0  0  0
 28 32  1  0  0  0  0
  2 15  1  0  0  0  0
  1 15  1  0  0  0  0
  1 35  1  0  0  0  0
 36 37  1  0  0  0  0
 36 38  2  0  0  0  0
 37 39  2  0  0  0  0
 38 40  1  0  0  0  0
 39 41  1  0  0  0  0
 40 41  2  0  0  0  0
  1 36  1  0  0  0  0
 41 42  1  0  0  0  0
M  END
> <NMREDATA_VERSION>
1.1

> <NMREDATA_LEVEL>
0

> <NMREDATA_SOLVENT>
DCCl3

> <NMREDATA_FORMULA>
C36H49BClNP2Rh

> <NMREDATA_SMILES>
CC1=CC=N(C=C1)[Rh]([B](c1ccccc1P(C(C)C)C(C)C)(c1ccccc1P(C(C)C)C(C)C)c1ccccc1)Cl

> <NMREDATA_ASSIGNMENT>
Rh1, 7552.00, 1

> <NMREDATA_1D_103Rh>
7552.00, L=Rh1

$$$$
