
  ACD/LABS03292412422D

 38 42  0  0  0  0  0  0  0  0  1 V2000
   15.3554  -13.9492    0.0000 C    0  0  0  0  0  0  0  0  0  0  0  0
   14.6971  -12.8013    0.0000 C    0  0  0  0  0  0  0  0  0  0  0  0
   16.6859  -13.9495    0.0000 C    0  0  0  0  0  0  0  0  0  0  0  0
   15.3576  -11.6574    0.0000 C    0  0  0  0  0  0  0  0  0  0  0  0
   17.3464  -12.8056    0.0000 C    0  0  0  0  0  0  0  0  0  0  0  0
   16.6808  -11.6535    0.0000 C    0  0  0  0  0  0  0  0  0  0  0  0
   17.3517  -15.1018    0.0000 C    0  0  0  0  0  0  0  0  0  0  0  0
   18.3068  -13.0222    0.0000 C    0  0  0  0  0  0  0  0  0  0  0  0
   17.4502  -12.0053    0.0000 C    0  0  0  0  0  0  0  0  0  0  0  0
   19.6200  -12.7872    0.0000 C    0  0  0  0  0  0  0  0  0  0  0  0
   17.8991  -10.7490    0.0000 C    0  0  0  0  0  0  0  0  0  0  0  0
   20.0690  -11.5309    0.0000 C    0  0  0  0  0  0  0  0  0  0  0  0
   19.2123  -10.5140    0.0000 C    0  0  0  0  0  0  0  0  0  0  0  0
   20.4685  -13.7994    0.0000 C    0  0  0  0  0  0  0  0  0  0  0  0
   16.7952  -17.0946    0.0000 C    0  0  0  0  0  0  0  0  0  0  0  0
   16.7947  -18.4255    0.0000 C    0  0  0  0  0  0  0  0  0  0  0  0
   17.9475  -16.4288    0.0000 C    0  0  0  0  0  0  0  0  0  0  0  0
   17.9387  -19.0859    0.0000 C    0  0  0  0  0  0  0  0  0  0  0  0
   19.0914  -17.0893    0.0000 C    0  0  0  0  0  0  0  0  0  0  0  0
   19.0910  -18.4201    0.0000 C    0  0  0  0  0  0  0  0  0  0  0  0
   20.2437  -16.4234    0.0000 C    0  0  0  0  0  0  0  0  0  0  0  0
   25.1314  -13.9521    0.0000 C    0  0  0  0  0  0  0  0  0  0  0  0
   25.7964  -12.8003    0.0000 C    0  0  0  0  0  0  0  0  0  0  0  0
   23.8082  -13.9560    0.0000 C    0  0  0  0  0  0  0  0  0  0  0  0
   25.1384  -11.6521    0.0000 N    0  0  0  0  0  0  0  0  0  0  0  0
   23.1427  -12.8039    0.0000 C    0  0  0  0  0  0  0  0  0  0  0  0
   23.8077  -11.6521    0.0000 C    0  0  0  0  0  0  0  0  0  0  0  0
   23.1432  -15.1078    0.0000 Rh   0  0  0  0  0  0  0  0  0  0  0  0
   24.4664  -15.1039    0.0000 H    0  0  0  0  0  0  0  0  0  0  0  0
   22.4777  -13.9557    0.0000 H    0  0  0  0  0  0  0  0  0  0  0  0
   20.2442  -15.0926    0.0000 P    0  0  0  0  0  0  0  0  0  0  0  0
   23.8014  -16.2557    0.0000 Cl   0  0  0  0  0  0  0  0  0  0  0  0
   22.4828  -16.2518    0.0000 C    0  0  0  0  0  0  0  0  0  0  0  0
   23.1408  -17.3999    0.0000 C    0  0  0  0  0  0  0  0  0  0  0  0
   21.1520  -16.2517    0.0000 C    0  0  0  0  0  0  0  0  0  0  0  0
   22.4758  -18.5517    0.0000 C    0  0  0  0  0  0  0  0  0  0  0  0
   20.4870  -17.4035    0.0000 C    0  0  0  0  0  0  0  0  0  0  0  0
   21.1526  -18.5557    0.0000 N    0  0  0  0  0  0  0  0  0  0  0  0
  1  2  2  0  0  0  0
  1  3  1  0  0  0  0
  2  4  1  0  0  0  0
  3  5  2  0  0  0  0
  4  6  2  0  0  0  0
  5  6  1  0  0  0  0
  3  7  1  0  0  0  0
  8  9  1  0  0  0  0
  8 10  2  0  0  0  0
  9 11  2  0  0  0  0
 10 12  1  0  0  0  0
 11 13  1  0  0  0  0
 12 13  2  0  0  0  0
 10 14  1  0  0  0  0
 15 16  1  0  0  0  0
 15 17  2  0  0  0  0
 16 18  2  0  0  0  0
 17 19  1  0  0  0  0
 18 20  1  0  0  0  0
 19 20  2  0  0  0  0
 19 21  1  0  0  0  0
 22 23  1  0  0  0  0
 22 24  2  0  0  0  0
 23 25  2  0  0  0  0
 24 26  1  0  0  0  0
 25 27  1  0  0  0  0
 26 27  2  0  0  0  0
 28 29  1  0  0  0  0
 28 30  1  0  0  0  0
 28 31  1  0  0  0  0
 28 32  1  0  0  0  0
 33 34  1  0  0  0  0
 33 35  2  0  0  0  0
 34 36  2  0  0  0  0
 35 37  1  0  0  0  0
 36 38  1  0  0  0  0
 37 38  2  0  0  0  0
 28 33  1  0  0  0  0
 24 28  1  0  0  0  0
 21 31  1  0  0  0  0
 14 31  1  0  0  0  0
  7 31  1  0  0  0  0
M  END
> <NMREDATA_VERSION>
1.1

> <NMREDATA_LEVEL>
0

> <NMREDATA_SOLVENT>
pyridine-d5

> <NMREDATA_TEMPERATURE>
255

> <NMREDATA_FORMULA>
C31H32ClN2PRh

> <NMREDATA_SMILES>
Cl[RhH2](P(Cc1ccccc1)(Cc1ccccc1)Cc1ccccc1)(c1ccncc1)c1ccncc1

> <NMREDATA_ASSIGNMENT>
Rh28, 856.00, 28

> <NMREDATA_1D_103Rh>
856.00, L=Rh28

$$$$
