
  ACD/LABS03092411112D

 35 38  0  0  0  0  0  0  0  0  1 V2000
   10.5012   -6.3239    0.0000 C    0  0  0  0  0  0  0  0  0  0  0  0
   11.8146   -6.5496    0.0000 C    0  0  0  0  0  0  0  0  0  0  0  0
   10.0487   -5.0693    0.0000 C    0  0  0  0  0  0  0  0  0  0  0  0
   12.6701   -5.5286    0.0000 C    0  0  0  0  0  0  0  0  0  0  0  0
   10.8997   -4.0560    0.0000 C    0  0  0  0  0  0  0  0  0  0  0  0
   12.2128   -4.2816    0.0000 C    0  0  0  0  0  0  0  0  0  0  0  0
    7.6668   -8.4849    0.0000 C    0  0  0  0  0  0  0  0  0  0  0  0
    8.9976   -8.4854    0.0000 C    0  0  0  0  0  0  0  0  0  0  0  0
    7.0020   -9.6364    0.0000 C    0  0  0  0  0  0  0  0  0  0  0  0
    9.6556   -9.6331    0.0000 C    0  0  0  0  0  0  0  0  0  0  0  0
    7.6678  -10.7887    0.0000 C    0  0  0  0  0  0  0  0  0  0  0  0
    8.9908  -10.7846    0.0000 C    0  0  0  0  0  0  0  0  0  0  0  0
    8.4986   -6.6723    0.0000 Rh   0  0  0  0  0  0  0  0  0  0  0  0
    7.4897   -7.5327    0.0000 H    0  0  0  0  0  0  0  0  0  0  0  0
    8.9581   -5.4330    0.0000 C    0  0  0  0  0  0  0  0  0  0  0  0
    9.4148   -4.1812    0.0000 O    0  0  0  0  0  0  0  0  0  0  0  0
    7.3468   -6.0073    0.0000 C    0  0  0  0  0  0  0  0  0  0  0  0
    6.1953   -5.3425    0.0000 O    0  0  0  0  0  0  0  0  0  0  0  0
    9.6501   -7.3372    0.0000 P    0  0  0  0  0  0  0  0  0  0  0  0
   10.8019   -8.0022    0.0000 C    0  0  0  0  0  0  0  0  0  0  0  0
   10.8058   -9.3247    0.0000 C    0  0  0  0  0  0  0  0  0  0  0  0
    8.5008  -13.3171    0.0000 C    0  0  0  0  0  0  0  0  0  0  0  0
    9.6523  -13.9819    0.0000 C    0  0  0  0  0  0  0  0  0  0  0  0
    8.5090  -11.9908    0.0000 C    0  0  0  0  0  0  0  0  0  0  0  0
   10.8045  -13.3162    0.0000 C    0  0  0  0  0  0  0  0  0  0  0  0
    9.6533  -11.3209    0.0000 C    0  0  0  0  0  0  0  0  0  0  0  0
   10.8048  -11.9857    0.0000 C    0  0  0  0  0  0  0  0  0  0  0  0
   11.9573   -9.9895    0.0000 C    0  0  0  0  0  0  0  0  0  0  0  0
   11.9571  -11.3199    0.0000 P    0  0  0  0  0  0  0  0  0  0  0  0
   13.1086  -11.9847    0.0000 C    0  0  0  0  0  0  0  0  0  0  0  0
   14.2606  -11.3193    0.0000 C    0  0  0  0  0  0  0  0  0  0  0  0
   13.1081  -13.3155    0.0000 C    0  0  0  0  0  0  0  0  0  0  0  0
   15.4125  -11.9843    0.0000 C    0  0  0  0  0  0  0  0  0  0  0  0
   14.2599  -13.9805    0.0000 C    0  0  0  0  0  0  0  0  0  0  0  0
   15.4119  -13.3145    0.0000 C    0  0  0  0  0  0  0  0  0  0  0  0
  1  2  1  0  0  0  0
  1  3  2  0  0  0  0
  2  4  2  0  0  0  0
  3  5  1  0  0  0  0
  4  6  1  0  0  0  0
  5  6  2  0  0  0  0
  7  8  1  0  0  0  0
  7  9  2  0  0  0  0
  8 10  2  0  0  0  0
  9 11  1  0  0  0  0
 10 12  1  0  0  0  0
 11 12  2  0  0  0  0
 13 14  1  0  0  0  0
 13 15  2  0  0  0  0
 15 16  2  0  0  0  0
 13 17  2  0  0  0  0
 17 18  2  0  0  0  0
 13 19  1  0  0  0  0
  8 19  1  0  0  0  0
  1 19  1  0  0  0  0
 19 20  1  0  0  0  0
 20 21  1  0  0  0  0
 22 23  1  0  0  0  0
 22 24  2  0  0  0  0
 23 25  2  0  0  0  0
 24 26  1  0  0  0  0
 25 27  1  0  0  0  0
 26 27  2  0  0  0  0
 28 29  1  0  0  0  0
 30 31  1  0  0  0  0
 30 32  2  0  0  0  0
 31 33  2  0  0  0  0
 32 34  1  0  0  0  0
 33 35  1  0  0  0  0
 34 35  2  0  0  0  0
 29 30  1  0  0  0  0
 27 29  1  0  0  0  0
 21 28  1  0  0  0  0
M  END
> <NMREDATA_VERSION>
1.1

> <NMREDATA_LEVEL>
0

> <NMREDATA_SOLVENT>
THF

> <NMREDATA_TEMPERATURE>
298

> <NMREDATA_FORMULA>
C29H28O2P2Rh

> <NMREDATA_SMILES>
O=C=[RhH](=C=O)P(c1ccccc1)(c1ccccc1)CCCP(c1ccccc1)c1ccccc1

> <NMREDATA_ASSIGNMENT>
Rh13, -955.00, 13

> <NMREDATA_1D_103Rh>
-955.00, L=Rh13

$$$$
