
  ACD/LABS03152413072D

 70 79  0  0  0  0  0  0  0  0  1 V2000
    9.2347   -8.5647    0.0000 C    0  0  0  0  0  0  0  0  0  0  0  0
   10.2549   -9.4250    0.0000 C    0  0  0  0  0  0  0  0  0  0  0  0
    7.9839   -9.0261    0.0000 C    0  0  0  0  0  0  0  0  0  0  0  0
   10.0241  -10.7290    0.0000 C    0  0  0  0  0  0  0  0  0  0  0  0
    7.7532  -10.3390    0.0000 C    0  0  0  0  0  0  0  0  0  0  0  0
    8.7733  -11.1904    0.0000 C    0  0  0  0  0  0  0  0  0  0  0  0
   15.1947  -10.2854    0.0000 Rh   0  0  0  0  0  0  0  0  0  0  0  0
   12.9778   -8.4228    0.0000 S    0  0  0  0  0  0  0  0  0  0  0  0
   14.1840  -11.1462    0.0000 P    0  0  0  0  0  0  0  0  0  0  0  0
   17.4121   -8.4139    0.0000 P    0  0  0  0  0  0  0  0  0  0  0  0
   19.0886  -14.8888    0.0000 P    0  0  0  0  0  0  0  0  0  0  0  0
   15.9930  -14.1525    0.0000 C    0  0  0  0  0  0  0  0  0  0  0  0
   14.9729  -13.3011    0.0000 C    0  0  0  0  0  0  0  0  0  0  0  0
   17.2439  -13.6911    0.0000 C    0  0  0  0  0  0  0  0  0  0  0  0
   15.1947  -11.9882    0.0000 C    0  0  0  0  0  0  0  0  0  0  0  0
   17.4657  -12.3872    0.0000 C    0  0  0  0  0  0  0  0  0  0  0  0
   16.4455  -11.5362    0.0000 C    0  0  0  0  0  0  0  0  0  0  0  0
   11.6292  -14.1967    0.0000 C    0  0  0  0  0  0  0  0  0  0  0  0
   12.9332  -14.4274    0.0000 C    0  0  0  0  0  0  0  0  0  0  0  0
   11.1683  -12.9463    0.0000 C    0  0  0  0  0  0  0  0  0  0  0  0
   13.7935  -13.4073    0.0000 C    0  0  0  0  0  0  0  0  0  0  0  0
   12.0197  -11.9262    0.0000 C    0  0  0  0  0  0  0  0  0  0  0  0
   13.3326  -12.1564    0.0000 C    0  0  0  0  0  0  0  0  0  0  0  0
   13.9002   -7.7222    0.0000 C    0  0  0  0  0  0  0  0  0  0  0  0
   12.5873   -7.5004    0.0000 C    0  0  0  0  0  0  0  0  0  0  0  0
   14.3616   -8.9730    0.0000 C    0  0  0  0  0  0  0  0  0  0  0  0
   11.7359   -8.5295    0.0000 C    0  0  0  0  0  0  0  0  0  0  0  0
   13.5186   -9.9927    0.0000 C    0  0  0  0  0  0  0  0  0  0  0  0
   12.2058   -9.7714    0.0000 C    0  0  0  0  0  0  0  0  0  0  0  0
   17.8204  -10.6848    0.0000 C    0  0  0  0  0  0  0  0  0  0  0  0
   18.6718  -11.6866    0.0000 C    0  0  0  0  0  0  0  0  0  0  0  0
   18.2640   -9.4250    0.0000 C    0  0  0  0  0  0  0  0  0  0  0  0
   19.9847  -11.4653    0.0000 C    0  0  0  0  0  0  0  0  0  0  0  0
   19.5763   -9.1948    0.0000 C    0  0  0  0  0  0  0  0  0  0  0  0
   20.4367  -10.2060    0.0000 C    0  0  0  0  0  0  0  0  0  0  0  0
   18.1930   -6.2406    0.0000 C    0  0  0  0  0  0  0  0  0  0  0  0
   19.2042   -5.3892    0.0000 C    0  0  0  0  0  0  0  0  0  0  0  0
   18.4233   -7.5535    0.0000 C    0  0  0  0  0  0  0  0  0  0  0  0
   20.4546   -5.8328    0.0000 C    0  0  0  0  0  0  0  0  0  0  0  0
   19.6741   -8.0060    0.0000 C    0  0  0  0  0  0  0  0  0  0  0  0
   20.6942   -7.1456    0.0000 C    0  0  0  0  0  0  0  0  0  0  0  0
   16.5517   -7.3937    0.0000 C    0  0  0  0  0  0  0  0  0  0  0  0
   15.2389   -7.6334    0.0000 C    0  0  0  0  0  0  0  0  0  0  0  0
   17.0042   -6.1434    0.0000 C    0  0  0  0  0  0  0  0  0  0  0  0
   14.3879   -6.6133    0.0000 C    0  0  0  0  0  0  0  0  0  0  0  0
   16.1439   -5.1322    0.0000 C    0  0  0  0  0  0  0  0  0  0  0  0
   14.8310   -5.3629    0.0000 C    0  0  0  0  0  0  0  0  0  0  0  0
   21.3596  -14.4805    0.0000 C    0  0  0  0  0  0  0  0  0  0  0  0
   22.3797  -13.6201    0.0000 C    0  0  0  0  0  0  0  0  0  0  0  0
   20.1087  -14.0285    0.0000 C    0  0  0  0  0  0  0  0  0  0  0  0
   22.1400  -12.3162    0.0000 C    0  0  0  0  0  0  0  0  0  0  0  0
   19.8691  -12.7245    0.0000 C    0  0  0  0  0  0  0  0  0  0  0  0
   20.8892  -11.8642    0.0000 C    0  0  0  0  0  0  0  0  0  0  0  0
   18.0774  -15.7492    0.0000 C    0  0  0  0  0  0  0  0  0  0  0  0
   18.3081  -17.0620    0.0000 C    0  0  0  0  0  0  0  0  0  0  0  0
   16.8266  -15.2967    0.0000 C    0  0  0  0  0  0  0  0  0  0  0  0
   17.2970  -17.9135    0.0000 C    0  0  0  0  0  0  0  0  0  0  0  0
   15.8070  -16.1570    0.0000 C    0  0  0  0  0  0  0  0  0  0  0  0
   16.0461  -17.4699    0.0000 C    0  0  0  0  0  0  0  0  0  0  0  0
   19.4965  -17.1593    0.0000 C    0  0  0  0  0  0  0  0  0  0  0  0
   19.9490  -15.9089    0.0000 C    0  0  0  0  0  0  0  0  0  0  0  0
   20.3573  -18.1705    0.0000 C    0  0  0  0  0  0  0  0  0  0  0  0
   21.2618  -15.6693    0.0000 C    0  0  0  0  0  0  0  0  0  0  0  0
   21.6697  -17.9398    0.0000 C    0  0  0  0  0  0  0  0  0  0  0  0
   22.1222  -16.6894    0.0000 C    0  0  0  0  0  0  0  0  0  0  0  0
   10.8845  -11.7397    0.0000 F    0  0  0  0  0  0  0  0  0  0  0  0
    8.5426  -12.4938    0.0000 F    0  0  0  0  0  0  0  0  0  0  0  0
    6.5024  -10.7910    0.0000 F    0  0  0  0  0  0  0  0  0  0  0  0
    6.9638   -8.1747    0.0000 F    0  0  0  0  0  0  0  0  0  0  0  0
    9.4650   -7.2608    0.0000 F    0  0  0  0  0  0  0  0  0  0  0  0
  1  2  1  0  0  0  0
  1  3  2  0  0  0  0
  2  4  2  0  0  0  0
  3  5  1  0  0  0  0
  4  6  1  0  0  0  0
  5  6  2  0  0  0  0
  7  8  1  0  0  0  0
  7  9  1  0  0  0  0
  7 10  1  0  0  0  0
  7 11  1  0  0  0  0
 12 13  1  0  0  0  0
 12 14  2  0  0  0  0
 13 15  2  0  0  0  0
 14 16  1  0  0  0  0
 15 17  1  0  0  0  0
 16 17  2  0  0  0  0
  9 15  1  0  0  0  0
 18 19  1  0  0  0  0
 18 20  2  0  0  0  0
 19 21  2  0  0  0  0
 20 22  1  0  0  0  0
 21 23  1  0  0  0  0
 22 23  2  0  0  0  0
  9 23  1  0  0  0  0
 24 25  1  0  0  0  0
 24 26  2  0  0  0  0
 25 27  2  0  0  0  0
 26 28  1  0  0  0  0
 27 29  1  0  0  0  0
 28 29  2  0  0  0  0
  9 28  1  0  0  0  0
 30 31  1  0  0  0  0
 30 32  2  0  0  0  0
 31 33  2  0  0  0  0
 32 34  1  0  0  0  0
 33 35  1  0  0  0  0
 34 35  2  0  0  0  0
 10 32  1  0  0  0  0
 36 37  1  0  0  0  0
 36 38  2  0  0  0  0
 37 39  2  0  0  0  0
 38 40  1  0  0  0  0
 39 41  1  0  0  0  0
 40 41  2  0  0  0  0
 10 38  1  0  0  0  0
 42 43  1  0  0  0  0
 42 44  2  0  0  0  0
 43 45  2  0  0  0  0
 44 46  1  0  0  0  0
 45 47  1  0  0  0  0
 46 47  2  0  0  0  0
 10 42  1  0  0  0  0
 48 49  1  0  0  0  0
 48 50  2  0  0  0  0
 49 51  2  0  0  0  0
 50 52  1  0  0  0  0
 51 53  1  0  0  0  0
 52 53  2  0  0  0  0
 11 50  1  0  0  0  0
 54 55  1  0  0  0  0
 54 56  2  0  0  0  0
 55 57  2  0  0  0  0
 56 58  1  0  0  0  0
 57 59  1  0  0  0  0
 58 59  2  0  0  0  0
 11 54  1  0  0  0  0
 60 61  1  0  0  0  0
 60 62  2  0  0  0  0
 61 63  2  0  0  0  0
 62 64  1  0  0  0  0
 63 65  1  0  0  0  0
 64 65  2  0  0  0  0
 11 61  1  0  0  0  0
  2  8  1  0  0  0  0
  4 66  1  0  0  0  0
  6 67  1  0  0  0  0
  5 68  1  0  0  0  0
  3 69  1  0  0  0  0
  1 70  1  0  0  0  0
M  END
> <NMREDATA_VERSION>
1.1

> <NMREDATA_LEVEL>
0

> <NMREDATA_SOLVENT>
toluene-d8

> <NMREDATA_TEMPERATURE>
248

> <NMREDATA_FORMULA>
C60H48F5P3RhS

> <NMREDATA_SMILES>
Fc1c(S[Rh](P(c2ccccc2)(c2ccccc2)c2ccccc2)(P(c2ccccc2)(c2ccccc2)c2ccccc2)P(c2ccccc2)(c2ccccc2)c2ccccc2)c(F)c(c(c1F)F)F

> <NMREDATA_ASSIGNMENT>
Rh7, 17.00, 7

> <NMREDATA_1D_103Rh>
17.00, L=Rh7

$$$$
