
  ACD/LABS03262411242D

 63 70  0  0  0  0  0  0  0  0  2 V2000
   14.9207  -14.6202    0.0000 C    0  0  0  0  0  0  0  0  0  0  0  0
   13.8249  -15.3657    0.0000 C    0  0  0  0  0  0  0  0  0  0  0  0
   14.8287  -13.2908    0.0000 C    0  0  0  0  0  0  0  0  0  0  0  0
   12.6217  -14.7902    0.0000 C    0  0  0  0  0  0  0  0  0  0  0  0
   13.6260  -12.7150    0.0000 C    0  0  0  0  0  0  0  0  0  0  0  0
   12.5299  -13.4601    0.0000 C    0  0  0  0  0  0  0  0  0  0  0  0
   15.3991  -12.7358    0.0000 C    0  0  0  0  0  0  0  0  0  0  0  0
   16.7145  -12.8678    0.0000 C    0  0  0  0  0  0  0  0  0  0  0  0
   14.8414  -11.5218    0.0000 C    0  0  0  0  0  0  0  0  0  0  0  0
   17.4917  -11.7837    0.0000 C    0  0  0  0  0  0  0  0  0  0  0  0
   15.6230  -10.4454    0.0000 C    0  0  0  0  0  0  0  0  0  0  0  0
   16.9460  -10.5725    0.0000 C    0  0  0  0  0  0  0  0  0  0  0  0
   11.4593  -10.3812    0.0000 C    0  0  0  0  0  0  0  0  0  0  0  0
   10.1382  -10.4885    0.0000 C    0  0  0  0  0  0  0  0  0  0  0  0
   12.2086  -11.4846    0.0000 C    0  0  0  0  0  0  0  0  0  0  0  0
    9.5461  -11.6800    0.0000 C    0  0  0  0  0  0  0  0  0  0  0  0
   11.6213  -12.6842    0.0000 C    0  0  0  0  0  0  0  0  0  0  0  0
   10.2957  -12.7838    0.0000 C    0  0  0  0  0  0  0  0  0  0  0  0
    7.8829  -13.5724    0.0000 C    0  0  0  0  0  0  0  0  0  0  0  0
    6.6456  -14.0719    0.0000 C    0  0  0  0  0  0  0  0  0  0  0  0
    8.0621  -12.2503    0.0000 C    0  0  0  0  0  0  0  0  0  0  0  0
    5.6038  -13.2606    0.0000 C    0  0  0  0  0  0  0  0  0  0  0  0
    7.0125  -11.4435    0.0000 C    0  0  0  0  0  0  0  0  0  0  0  0
    5.7867  -11.9461    0.0000 C    0  0  0  0  0  0  0  0  0  0  0  0
   10.8647  -14.0532    0.0000 C    0  0  0  0  0  0  0  0  0  0  0  0
   11.7702  -15.0360    0.0000 C    0  0  0  0  0  0  0  0  0  0  0  0
    9.5667  -14.3413    0.0000 C    0  0  0  0  0  0  0  0  0  0  0  0
   11.3735  -16.2998    0.0000 C    0  0  0  0  0  0  0  0  0  0  0  0
    9.1740  -15.6131    0.0000 C    0  0  0  0  0  0  0  0  0  0  0  0
   10.0750  -16.5882    0.0000 C    0  0  0  0  0  0  0  0  0  0  0  0
    9.6519   -8.4753    0.0000 C    0  0  0  0  0  0  0  0  0  0  0  0
    8.3420   -8.2994    0.0000 C    0  0  0  0  0  0  0  0  0  0  0  0
   10.4713   -7.4287    0.0000 C    0  0  0  0  0  0  0  0  0  0  0  0
    7.8345   -7.0661    0.0000 C    0  0  0  0  0  0  0  0  0  0  0  0
    9.9720   -6.1907    0.0000 C    0  0  0  0  0  0  0  0  0  0  0  0
    8.6495   -6.0118    0.0000 C    0  0  0  0  0  0  0  0  0  0  0  0
   13.4348  -10.0599    0.0000 Rh   0  0  0  0  0  0  0  0  0  0  0  0
   14.1259   -8.9339    0.0000 S    0  0  0  0  0  0  0  0  0  0  0  0
   21.2529   -9.1619    0.0000 C    0  0  0  0  0  0  0  0  0  0  0  0
   20.6262   -7.9871    0.0000 C    0  0  0  0  0  0  0  0  0  0  0  0
   20.5492  -10.2849    0.0000 C    0  0  0  0  0  0  0  0  0  0  0  0
   19.3001   -7.9438    0.0000 C    0  0  0  0  0  0  0  0  0  0  0  0
   19.2235  -10.2413    0.0000 C    0  0  0  0  0  0  0  0  0  0  0  0
   18.5886   -9.0712    0.0000 C    0  0  0  0  0  0  0  0  0  0  0  0
   18.5242  -11.3720    0.0000 F    0  0  0  0  0  0  0  0  0  0  0  0
   21.1763  -11.4594    0.0000 F    0  0  0  0  0  0  0  0  0  0  0  0
   22.5868   -9.2007    0.0000 F    0  0  0  0  0  0  0  0  0  0  0  0
   21.3250   -6.8566    0.0000 F    0  0  0  0  0  0  0  0  0  0  0  0
   18.6657   -6.7734    0.0000 F    0  0  0  0  0  0  0  0  0  0  0  0
   14.7175  -10.3844    0.0000 O    0  0  0  0  0  0  0  0  0  0  0  0
   15.6373   -9.4231    0.0000 O    0  0  0  0  0  0  0  0  0  0  0  0
   10.7463  -11.1509    0.0000 P    0  0  0  0  0  0  0  0  0  0  0  0
   13.5341  -11.3850    0.0000 P    0  0  0  0  0  0  0  0  0  0  0  0
   12.5756   -9.0510    0.0000 C    0  0  0  0  0  0  0  0  0  0  0  0
   13.0206   -7.8005    0.0000 C    0  0  0  0  0  0  0  0  0  0  0  0
   12.1616   -6.7909    0.0000 C    0  0  0  0  0  0  0  0  0  0  0  0
   14.3299   -7.5665    0.0000 C    0  0  0  0  0  0  0  0  0  0  0  0
   12.6144   -5.5360    0.0000 C    0  0  0  0  0  0  0  0  0  0  0  0
   14.7832   -6.3114    0.0000 C    0  0  0  0  0  0  0  0  0  0  0  0
   13.9237   -5.3020    0.0000 C    0  0  0  0  0  0  0  0  0  0  0  0
   14.3769   -4.0469    0.0000 C    0  0  0  0  0  0  0  0  0  0  0  0
   13.5130   -3.0297    0.0000 N    0  3  0  0  0  0  0  0  0  0  0  0
   12.6539   -2.0200    0.0000 C    0  5  0  0  0  0  0  0  0  0  0  0
  1  2  1  0  0  0  0
  1  3  2  0  0  0  0
  2  4  2  0  0  0  0
  3  5  1  0  0  0  0
  4  6  1  0  0  0  0
  5  6  2  0  0  0  0
  7  8  1  0  0  0  0
  7  9  2  0  0  0  0
  8 10  2  0  0  0  0
  9 11  1  0  0  0  0
 10 12  1  0  0  0  0
 11 12  2  0  0  0  0
 13 14  1  0  0  0  0
 13 15  2  0  0  0  0
 14 16  2  0  0  0  0
 15 17  1  0  0  0  0
 16 18  1  0  0  0  0
 17 18  2  0  0  0  0
 19 20  1  0  0  0  0
 19 21  2  0  0  0  0
 20 22  2  0  0  0  0
 21 23  1  0  0  0  0
 22 24  1  0  0  0  0
 23 24  2  0  0  0  0
 25 26  1  0  0  0  0
 25 27  2  0  0  0  0
 26 28  2  0  0  0  0
 27 29  1  0  0  0  0
 28 30  1  0  0  0  0
 29 30  2  0  0  0  0
 31 32  1  0  0  0  0
 31 33  2  0  0  0  0
 32 34  2  0  0  0  0
 33 35  1  0  0  0  0
 34 36  1  0  0  0  0
 35 36  2  0  0  0  0
 37 38  1  0  0  0  0
 39 40  1  0  0  0  0
 39 41  2  0  0  0  0
 40 42  2  0  0  0  0
 41 43  1  0  0  0  0
 42 44  1  0  0  0  0
 43 44  2  0  0  0  0
 38 44  1  0  0  0  0
 43 45  1  0  0  0  0
 41 46  1  0  0  0  0
 39 47  1  0  0  0  0
 40 48  1  0  0  0  0
 42 49  1  0  0  0  0
 37 50  1  0  0  0  0
 50 51  2  0  0  0  0
 37 52  1  0  0  0  0
 37 53  1  0  0  0  0
 31 52  1  0  0  0  0
 25 52  1  0  0  0  0
 21 52  1  0  0  0  0
 15 53  1  0  0  0  0
  9 53  1  0  0  0  0
  5 53  1  0  0  0  0
 37 54  1  0  0  0  0
 55 56  1  0  0  0  0
 55 57  2  0  0  0  0
 56 58  2  0  0  0  0
 57 59  1  0  0  0  0
 58 60  1  0  0  0  0
 59 60  2  0  0  0  0
 54 55  1  0  0  0  0
 60 61  1  0  0  0  0
 62 63  3  0  0  0  0
 61 62  1  0  0  0  0
M  END
> <NMREDATA_VERSION>
1.1

> <NMREDATA_LEVEL>
0

> <NMREDATA_SOLVENT>
toluene-d8

> <NMREDATA_TEMPERATURE>
300

> <NMREDATA_FORMULA>
C51H42F5NO2P2RhS

> <NMREDATA_SMILES>
C#NCc1ccc(cc1)C[Rh](P(c1ccccc1)(c1ccccc1)c1ccccc1)(P(c1ccccc1)(c1ccccc1)c1ccccc1)(Sc1c(F)c(F)c(c(c1F)F)F)[O]=O

> <NMREDATA_ASSIGNMENT>
Rh37, 1601.00, 37

> <NMREDATA_1D_103Rh>
1601.00, L=Rh37

$$$$
