
  ACD/LABS03222419152D

 43 46  0  0  0  0  0  0  0  0  1 V2000
   16.9167  -11.6305    0.0000 C    0  0  0  0  0  0  0  0  0  0  0  0
   17.3496  -12.8417    0.0000 C    0  0  0  0  0  0  0  0  0  0  0  0
   17.7351  -10.6548    0.0000 C    0  0  0  0  0  0  0  0  0  0  0  0
   18.6113  -13.0607    0.0000 C    0  0  0  0  0  0  0  0  0  0  0  0
   19.0011  -10.8813    0.0000 C    0  0  0  0  0  0  0  0  0  0  0  0
   19.4337  -12.0922    0.0000 C    0  0  0  0  0  0  0  0  0  0  0  0
   19.0391   -2.2618    0.0000 O    0  0  0  0  0  0  0  0  0  0  0  0
   19.6728   -3.3767    0.0000 N    0  0  0  0  0  0  0  0  0  0  0  0
   19.0312   -4.4875    0.0000 C    0  0  0  0  0  0  0  0  0  0  0  0
   17.7509   -4.4763    0.0000 C    0  0  0  0  0  0  0  0  0  0  0  0
   19.6648   -5.6025    0.0000 C    0  0  0  0  0  0  0  0  0  0  0  0
   20.9479   -5.6020    0.0000 C    0  0  0  0  0  0  0  0  0  0  0  0
   19.0186   -6.7059    0.0000 N    0  0  0  0  0  0  0  0  0  0  0  0
   19.6522   -7.8208    0.0000 O    0  0  0  0  0  0  0  0  0  0  0  0
   11.4314  -11.9945    0.0000 O    0  0  0  0  0  0  0  0  0  0  0  0
   12.6854  -12.2175    0.0000 N    0  0  0  0  0  0  0  0  0  0  0  0
   13.5233  -11.2410    0.0000 C    0  0  0  0  0  0  0  0  0  0  0  0
   13.0829  -10.0341    0.0000 C    0  0  0  0  0  0  0  0  0  0  0  0
   14.7773  -11.4640    0.0000 C    0  0  0  0  0  0  0  0  0  0  0  0
   15.2133  -12.6633    0.0000 C    0  0  0  0  0  0  0  0  0  0  0  0
   15.6034  -10.4838    0.0000 N    0  0  0  0  0  0  0  0  0  0  0  0
   16.8692  -10.7105    0.0000 O    0  0  0  0  0  0  0  0  0  0  0  0
   19.0018   -8.9162    0.0000 Rh   0  0  0  0  0  0  0  0  0  0  0  0
   19.8268   -9.9010    0.0000 P    0  0  0  0  0  0  0  0  0  0  0  0
   20.6521  -10.8856    0.0000 C    0  0  0  0  0  0  0  0  0  0  0  0
   21.9108  -10.6721    0.0000 C    0  0  0  0  0  0  0  0  0  0  0  0
   20.2109  -12.0878    0.0000 C    0  0  0  0  0  0  0  0  0  0  0  0
   22.7315  -11.6494    0.0000 C    0  0  0  0  0  0  0  0  0  0  0  0
   21.0286  -13.0767    0.0000 C    0  0  0  0  0  0  0  0  0  0  0  0
   22.2946  -12.8591    0.0000 C    0  0  0  0  0  0  0  0  0  0  0  0
   20.8116   -9.0760    0.0000 C    0  0  0  0  0  0  0  0  0  0  0  0
   20.5905   -7.8216    0.0000 C    0  0  0  0  0  0  0  0  0  0  0  0
   22.0135   -9.5169    0.0000 C    0  0  0  0  0  0  0  0  0  0  0  0
   21.5797   -7.0042    0.0000 C    0  0  0  0  0  0  0  0  0  0  0  0
   23.0025   -8.6991    0.0000 C    0  0  0  0  0  0  0  0  0  0  0  0
   22.7773   -7.4375    0.0000 C    0  0  0  0  0  0  0  0  0  0  0  0
   18.1854   -7.9470    0.0000 C    0  0  0  0  0  0  0  0  0  0  0  0
   16.9194   -8.1647    0.0000 C    0  0  0  0  0  0  0  0  0  0  0  0
   16.4857   -9.3625    0.0000 C    0  0  0  0  0  0  0  0  0  0  0  0
   16.1016   -7.1757    0.0000 C    0  0  0  0  0  0  0  0  0  0  0  0
   15.2241   -9.5877    0.0000 C    0  0  0  0  0  0  0  0  0  0  0  0
   14.8475   -7.3966    0.0000 C    0  0  0  0  0  0  0  0  0  0  0  0
   14.4063   -8.5987    0.0000 C    0  0  0  0  0  0  0  0  0  0  0  0
  1  2  1  0  0  0  0
  1  3  2  0  0  0  0
  2  4  2  0  0  0  0
  3  5  1  0  0  0  0
  4  6  1  0  0  0  0
  5  6  2  0  0  0  0
  7  8  1  0  0  0  0
  8  9  2  0  0  0  0
  9 10  1  0  0  0  0
  9 11  1  0  0  0  0
 11 12  1  0  0  0  0
 11 13  2  0  0  0  0
 13 14  1  0  0  0  0
 15 16  1  0  0  0  0
 16 17  2  0  0  0  0
 17 18  1  0  0  0  0
 17 19  1  0  0  0  0
 19 20  1  0  0  0  0
 19 21  2  0  0  0  0
 21 22  1  0  0  0  0
 22 23  1  0  0  0  0
 14 23  1  0  0  0  0
 23 24  1  0  0  0  0
 25 26  1  0  0  0  0
 25 27  2  0  0  0  0
 26 28  2  0  0  0  0
 27 29  1  0  0  0  0
 28 30  1  0  0  0  0
 29 30  2  0  0  0  0
 24 25  1  0  0  0  0
 31 32  1  0  0  0  0
 31 33  2  0  0  0  0
 32 34  2  0  0  0  0
 33 35  1  0  0  0  0
 34 36  1  0  0  0  0
 35 36  2  0  0  0  0
 24 31  1  0  0  0  0
  5 24  1  0  0  0  0
 23 37  1  0  0  0  0
 38 39  1  0  0  0  0
 38 40  2  0  0  0  0
 39 41  2  0  0  0  0
 40 42  1  0  0  0  0
 41 43  1  0  0  0  0
 42 43  2  0  0  0  0
 37 38  1  0  0  0  0
M  END
> <NMREDATA_VERSION>
1.1

> <NMREDATA_LEVEL>
0

> <NMREDATA_SOLVENT>
DCCl3

> <NMREDATA_TEMPERATURE>
298

> <NMREDATA_FORMULA>
C33H37N4O4PRh

> <NMREDATA_SMILES>
O/N=C(/C(=N/O[Rh](P(c1ccccc1)(c1ccccc1)c1ccccc1)(Cc1ccccc1)O/N=C(/C(=N/O)/C)\C)/C)\C

> <NMREDATA_ASSIGNMENT>
Rh23, 2066.00, 23

> <NMREDATA_1D_103Rh>
2066.00, L=Rh23

$$$$
