
  ACD/LABS04032413492D

 13 12  0  0  0  0  0  0  0  0  1 V2000
   10.7201  -14.4698    0.0000 Rh   0  0  0  0  0  0  0  0  0  0  0  0
   10.3516  -13.3641    0.0000 Br   0  0  0  0  0  0  0  0  0  0  0  0
   10.1112  -15.3992    0.0000 Br   0  0  0  0  0  0  0  0  0  0  0  0
   12.2584  -13.7807    0.0000 Br   0  0  0  0  0  0  0  0  0  0  0  0
   11.1528  -12.9635    0.0000 Te   0  0  0  0  0  0  0  0  0  0  0  0
   12.4668  -14.9825    0.0000 Te   0  0  0  0  0  0  0  0  0  0  0  0
   11.3451  -15.8639    0.0000 Te   0  0  0  0  0  0  0  0  0  0  0  0
   11.2970  -11.7937    0.0000 C    0  0  0  0  0  0  0  0  0  0  0  0
   12.1463  -12.4988    0.0000 C    0  0  0  0  0  0  0  0  0  0  0  0
   14.1012  -14.4698    0.0000 C    0  0  0  0  0  0  0  0  0  0  0  0
   13.8448  -15.3511    0.0000 C    0  0  0  0  0  0  0  0  0  0  0  0
   12.7071  -16.3606    0.0000 C    0  0  0  0  0  0  0  0  0  0  0  0
   10.6721  -16.6330    0.0000 C    0  0  0  0  0  0  0  0  0  0  0  0
  1  2  1  0  0  0  0
  1  3  1  0  0  0  0
  1  4  1  0  0  0  0
  1  5  1  0  0  0  0
  1  6  1  0  0  0  0
  1  7  1  0  0  0  0
  5  8  1  0  0  0  0
  5  9  1  0  0  0  0
  6 10  1  0  0  0  0
  6 11  1  0  0  0  0
  7 12  1  0  0  0  0
  7 13  1  0  0  0  0
M  END
> <NMREDATA_VERSION>
1.1

> <NMREDATA_LEVEL>
0

> <NMREDATA_SOLVENT>
CD2Cl2

> <NMREDATA_FORMULA>
C6H21Br3RhTe3

> <NMREDATA_SMILES>
C[TeH]([Rh]([TeH](C)C)([TeH](C)C)(Br)(Br)Br)C

> <NMREDATA_ASSIGNMENT>
Rh1, 2567.00, 1

> <NMREDATA_1D_103Rh>
2567.00, L=Rh1

$$$$
