
  ACD/LABS03112411372D

 22 23  0  0  0  0  0  0  0  0  1 V2000
   17.9611  -16.8814    0.0000 C    0  0  0  0  0  0  0  0  0  0  0  0
   17.9611  -18.2114    0.0000 C    0  0  0  0  0  0  0  0  0  0  0  0
   16.8092  -16.2164    0.0000 C    0  0  0  0  0  0  0  0  0  0  0  0
   16.8092  -18.8764    0.0000 C    0  0  0  0  0  0  0  0  0  0  0  0
   15.6574  -16.8814    0.0000 C    0  0  0  0  0  0  0  0  0  0  0  0
   15.6574  -18.2114    0.0000 C    0  0  0  0  0  0  0  0  0  0  0  0
    7.2570  -16.0161    0.0000 C    0  0  0  0  0  0  0  0  0  0  0  0
    7.2570  -17.3461    0.0000 C    0  0  0  0  0  0  0  0  0  0  0  0
    6.1051  -15.3511    0.0000 C    0  0  0  0  0  0  0  0  0  0  0  0
    6.1051  -18.0111    0.0000 C    0  0  0  0  0  0  0  0  0  0  0  0
    4.9533  -16.0161    0.0000 C    0  0  0  0  0  0  0  0  0  0  0  0
    4.9533  -17.3461    0.0000 C    0  0  0  0  0  0  0  0  0  0  0  0
   11.7136  -15.7196    0.0000 Rh   0  0  0  0  0  0  0  0  0  0  0  0
   13.9249  -14.4698    0.0000 P    0  0  0  0  0  0  0  0  0  0  0  0
   10.0631  -16.6971    0.0000 P    0  0  0  0  0  0  0  0  0  0  0  0
   10.9284  -14.3736    0.0000 Cl   0  0  0  0  0  0  0  0  0  0  0  0
   12.6430  -17.1618    0.0000 C    0  0  0  0  0  0  0  0  0  0  0  0
   13.3481  -18.6040    0.0000 O    0  0  0  0  0  0  0  0  0  0  0  0
    8.8774  -18.0912    0.0000 C    0  0  0  0  0  0  0  0  0  0  0  0
   10.5118  -18.4918    0.0000 C    0  0  0  0  0  0  0  0  0  0  0  0
   16.0081  -14.4698    0.0000 C    0  0  0  0  0  0  0  0  0  0  0  0
   13.9730  -13.0436    0.0000 C    0  0  0  0  0  0  0  0  0  0  0  0
  1  2  1  0  0  0  0
  1  3  2  0  0  0  0
  2  4  2  0  0  0  0
  3  5  1  0  0  0  0
  4  6  1  0  0  0  0
  5  6  2  0  0  0  0
  7  8  1  0  0  0  0
  7  9  2  0  0  0  0
  8 10  2  0  0  0  0
  9 11  1  0  0  0  0
 10 12  1  0  0  0  0
 11 12  2  0  0  0  0
 13 14  1  0  0  0  0
 13 15  1  0  0  0  0
  7 15  1  0  0  0  0
  5 14  1  0  0  0  0
 13 16  1  0  0  0  0
 13 17  1  0  0  0  0
 17 18  3  0  0  0  0
 15 19  1  0  0  0  0
 15 20  1  0  0  0  0
 14 21  1  0  0  0  0
 14 22  1  0  0  0  0
M  END
> <NMREDATA_VERSION>
1.1

> <NMREDATA_LEVEL>
0

> <NMREDATA_SOLVENT>
C6D6

> <NMREDATA_TEMPERATURE>
297

> <NMREDATA_FORMULA>
C17H24ClOP2Rh

> <NMREDATA_SMILES>
[O]#C[Rh](P(c1ccccc1)(C)C)(P(c1ccccc1)(C)C)Cl

> <NMREDATA_ASSIGNMENT>
Rh13, -405.00, 13

> <NMREDATA_1D_103Rh>
-405.00, L=Rh13

$$$$
