
  ACD/LABS03122417102D

 12 11  0  0  0  0  0  0  0  0  1 V2000
    7.8839   -9.4382    0.0000 Rh   0  0  0  0  0  0  0  0  0  0  0  0
    9.6305   -8.3486    0.0000 P    0  0  0  0  0  0  0  0  0  0  0  0
    6.8102  -10.6560    0.0000 P    0  0  0  0  0  0  0  0  0  0  0  0
   11.2668   -6.5298    0.0000 C    0  0  0  0  0  0  0  0  0  0  0  0
    7.0346   -7.7396    0.0000 Br   0  0  0  0  0  0  0  0  0  0  0  0
    9.5183  -11.2169    0.0000 C    0  0  0  0  0  0  0  0  0  0  0  0
   10.3035  -12.5469    0.0000 O    0  0  0  0  0  0  0  0  0  0  0  0
    9.7266   -5.8808    0.0000 C    0  0  0  0  0  0  0  0  0  0  0  0
   12.4187   -7.8518    0.0000 C    0  0  0  0  0  0  0  0  0  0  0  0
    3.9580  -10.1433    0.0000 C    0  0  0  0  0  0  0  0  0  0  0  0
    4.7111  -11.7136    0.0000 C    0  0  0  0  0  0  0  0  0  0  0  0
    7.0346  -13.2680    0.0000 C    0  0  0  0  0  0  0  0  0  0  0  0
  1  2  1  0  0  0  0
  1  3  1  0  0  0  0
  2  4  1  0  0  0  0
  1  5  1  0  0  0  0
  1  6  1  0  0  0  0
  6  7  3  0  0  0  0
  2  8  1  0  0  0  0
  2  9  1  0  0  0  0
  3 10  1  0  0  0  0
  3 11  1  0  0  0  0
  3 12  1  0  0  0  0
M  END
> <NMREDATA_VERSION>
1.1

> <NMREDATA_LEVEL>
0

> <NMREDATA_SOLVENT>
C6D6

> <NMREDATA_FORMULA>
C7H20BrOP2Rh

> <NMREDATA_SMILES>
[O]#C[Rh](P(C)(C)C)(P(C)(C)C)Br

> <NMREDATA_ASSIGNMENT>
Rh1, -448.00, 1

> <NMREDATA_1D_103Rh>
-448.00, L=Rh1

$$$$
