
  ACD/LABS04032410202D

 19 16  0  0  0  0  0  0  0  0  2 V2000
   12.1783  -16.4230    0.0000 Rh   0  7  0  0  0  0  0  0  0  0  0  0
   12.1735  -14.7149    0.0000 O    0  3  0  0  0  0  0  0  0  0  0  0
   12.7639  -18.0345    0.0000 O    0  3  0  0  0  0  0  0  0  0  0  0
   11.0755  -15.1101    0.0000 O    0  3  0  0  0  0  0  0  0  0  0  0
   13.6651  -17.2754    0.0000 O    0  3  0  0  0  0  0  0  0  0  0  0
   10.6864  -17.2844    0.0000 O    0  3  0  0  0  0  0  0  0  0  0  0
    9.1996  -16.4319    0.0000 H    0  0  0  0  0  0  0  0  0  0  0  0
   10.6912  -18.9924    0.0000 H    0  0  0  0  0  0  0  0  0  0  0  0
   10.6909  -13.8467    0.0000 H    0  0  0  0  0  0  0  0  0  0  0  0
   13.6655  -13.8535    0.0000 H    0  0  0  0  0  0  0  0  0  0  0  0
   11.8957  -19.5170    0.0000 H    0  0  0  0  0  0  0  0  0  0  0  0
   14.4735  -18.0554    0.0000 H    0  0  0  0  0  0  0  0  0  0  0  0
    9.3575  -15.1207    0.0000 H    0  0  0  0  0  0  0  0  0  0  0  0
   11.9122  -13.6191    0.0000 H    0  0  0  0  0  0  0  0  0  0  0  0
   13.6657  -18.9992    0.0000 H    0  0  0  0  0  0  0  0  0  0  0  0
   15.1571  -16.4140    0.0000 H    0  0  0  0  0  0  0  0  0  0  0  0
   13.6603  -15.5674    0.0000 F    0  0  0  0  0  0  0  0  0  0  0  0
   18.8924  -12.7872    0.0000 F    0  5  0  0  0  0  0  0  0  0  0  0
   20.0141  -13.7487    0.0000 F    0  5  0  0  0  0  0  0  0  0  0  0
  1  2  1  0  0  0  0
  1  3  1  0  0  0  0
  1  4  1  0  0  0  0
  1  5  1  0  0  0  0
  1  6  1  0  0  0  0
  6  7  1  0  0  0  0
  6  8  1  0  0  0  0
  2  9  1  0  0  0  0
  2 10  1  0  0  0  0
  3 11  1  0  0  0  0
  3 12  1  0  0  0  0
  4 13  1  0  0  0  0
  4 14  1  0  0  0  0
  5 15  1  0  0  0  0
  5 16  1  0  0  0  0
  1 17  1  0  0  0  0
M  END
> <NMREDATA_VERSION>
1.1

> <NMREDATA_LEVEL>
0

> <NMREDATA_SOLVENT>
HF (aq)

> <NMREDATA_TEMPERATURE>
298

> <NMREDATA_FORMULA>
F3H12O5Rh

> <NMREDATA_SMILES>
[OH2][Rh](F)([OH2])([OH2])([OH2])[OH2].F.F

> <NMREDATA_ASSIGNMENT>
Rh1, 10524.00, 1

> <NMREDATA_1D_103Rh>
10524.00, L=Rh1

$$$$
