
  ACD/LABS03122417292D

 46 50  0  0  0  0  0  0  0  0  2 V2000
    7.5410  -11.1863    0.0000 C    0  0  0  0  0  0  0  0  0  0  0  0
    7.5410   -9.2153    0.0000 N    0  0  0  0  0  0  0  0  0  0  0  0
    5.9382   -8.0460    0.0000 C    0  0  0  0  0  0  0  0  0  0  0  0
    9.1310   -8.0460    0.0000 N    0  0  0  0  0  0  0  0  0  0  0  0
    6.5560   -6.1807    0.0000 C    0  0  0  0  0  0  0  0  0  0  0  0
    8.5265   -6.1807    0.0000 C    0  0  0  0  0  0  0  0  0  0  0  0
    9.6692   -4.5774    0.0000 C    0  0  0  0  0  0  0  0  0  0  0  0
    4.0728   -8.6633    0.0000 C    0  0  0  0  0  0  0  0  0  0  0  0
    9.2357  -12.1580    0.0000 Rh   0  3  0  0  0  0  0  0  0  0  0  0
   10.2075  -10.4633    0.0000 C    0  0  0  0  0  0  0  0  0  0  0  0
   11.1930   -8.7557    0.0000 O    0  0  0  0  0  0  0  0  0  0  0  0
    8.2640  -13.8528    0.0000 C    0  0  0  0  0  0  0  0  0  0  0  0
    7.2785  -15.5603    0.0000 O    0  0  0  0  0  0  0  0  0  0  0  0
   10.9305  -13.1298    0.0000 C    0  0  0  0  0  0  0  0  0  0  0  0
   10.9305  -15.1007    0.0000 N    0  0  0  0  0  0  0  0  0  0  0  0
   12.5333  -16.2700    0.0000 C    0  0  0  0  0  0  0  0  0  0  0  0
    9.3404  -16.2700    0.0000 N    0  0  0  0  0  0  0  0  0  0  0  0
   11.9155  -18.1353    0.0000 C    0  0  0  0  0  0  0  0  0  0  0  0
    9.9450  -18.1353    0.0000 C    0  0  0  0  0  0  0  0  0  0  0  0
    8.8022  -19.7386    0.0000 C    0  0  0  0  0  0  0  0  0  0  0  0
   14.3986  -15.6527    0.0000 C    0  0  0  0  0  0  0  0  0  0  0  0
   21.2903   -7.6755    0.0000 C    0  0  0  0  0  0  0  0  0  0  0  0
   21.2903   -9.0055    0.0000 C    0  0  0  0  0  0  0  0  0  0  0  0
   20.1385   -7.0105    0.0000 C    0  0  0  0  0  0  0  0  0  0  0  0
   20.1385   -9.6705    0.0000 C    0  0  0  0  0  0  0  0  0  0  0  0
   18.9866   -7.6755    0.0000 C    0  0  0  0  0  0  0  0  0  0  0  0
   18.9866   -9.0055    0.0000 C    0  0  0  0  0  0  0  0  0  0  0  0
   15.5312  -12.3305    0.0000 C    0  0  0  0  0  0  0  0  0  0  0  0
   14.3794  -11.6655    0.0000 C    0  0  0  0  0  0  0  0  0  0  0  0
   16.6830  -11.6655    0.0000 C    0  0  0  0  0  0  0  0  0  0  0  0
   14.3794  -10.3355    0.0000 C    0  0  0  0  0  0  0  0  0  0  0  0
   16.6830  -10.3355    0.0000 C    0  0  0  0  0  0  0  0  0  0  0  0
   15.5312   -9.6705    0.0000 C    0  0  0  0  0  0  0  0  0  0  0  0
   18.4998  -10.8224    0.0000 C    0  0  0  0  0  0  0  0  0  0  0  0
   19.8298  -10.8224    0.0000 C    0  0  0  0  0  0  0  0  0  0  0  0
   17.8348  -11.9742    0.0000 C    0  0  0  0  0  0  0  0  0  0  0  0
   20.4948  -11.9742    0.0000 C    0  0  0  0  0  0  0  0  0  0  0  0
   18.4998  -13.1260    0.0000 C    0  0  0  0  0  0  0  0  0  0  0  0
   19.8298  -13.1260    0.0000 C    0  0  0  0  0  0  0  0  0  0  0  0
   17.1698   -6.2151    0.0000 C    0  0  0  0  0  0  0  0  0  0  0  0
   17.8348   -7.3669    0.0000 C    0  0  0  0  0  0  0  0  0  0  0  0
   15.8398   -6.2151    0.0000 C    0  0  0  0  0  0  0  0  0  0  0  0
   17.1698   -8.5187    0.0000 C    0  0  0  0  0  0  0  0  0  0  0  0
   15.1748   -7.3669    0.0000 C    0  0  0  0  0  0  0  0  0  0  0  0
   15.8398   -8.5187    0.0000 C    0  0  0  0  0  0  0  0  0  0  0  0
   17.8348   -9.6705    0.0000 B    0  5  0  0  0  0  0  0  0  0  0  0
  2  3  1  0  0  0  0
  2  4  1  0  0  0  0
  3  5  2  0  0  0  0
  4  6  2  0  0  0  0
  5  6  1  0  0  0  0
  1  2  1  0  0  0  0
  6  7  1  0  0  0  0
  3  8  1  0  0  0  0
  9 10  1  0  0  0  0
 10 11  3  0  0  0  0
  9 12  1  0  0  0  0
 12 13  3  0  0  0  0
  9 14  1  0  0  0  0
 15 16  1  0  0  0  0
 15 17  1  0  0  0  0
 16 18  2  0  0  0  0
 17 19  2  0  0  0  0
 18 19  1  0  0  0  0
 14 15  1  0  0  0  0
 19 20  1  0  0  0  0
 16 21  1  0  0  0  0
  1  9  1  0  0  0  0
 22 23  1  0  0  0  0
 22 24  2  0  0  0  0
 23 25  2  0  0  0  0
 24 26  1  0  0  0  0
 25 27  1  0  0  0  0
 26 27  2  0  0  0  0
 28 29  1  0  0  0  0
 28 30  2  0  0  0  0
 29 31  2  0  0  0  0
 30 32  1  0  0  0  0
 31 33  1  0  0  0  0
 32 33  2  0  0  0  0
 34 35  1  0  0  0  0
 34 36  2  0  0  0  0
 35 37  2  0  0  0  0
 36 38  1  0  0  0  0
 37 39  1  0  0  0  0
 38 39  2  0  0  0  0
 40 41  1  0  0  0  0
 40 42  2  0  0  0  0
 41 43  2  0  0  0  0
 42 44  1  0  0  0  0
 43 45  1  0  0  0  0
 44 45  2  0  0  0  0
 43 46  1  0  0  0  0
 34 46  1  0  0  0  0
 32 46  1  0  0  0  0
 27 46  1  0  0  0  0
M  END
> <NMREDATA_VERSION>
1.1

> <NMREDATA_LEVEL>
0

> <NMREDATA_SOLVENT>
acetone

> <NMREDATA_TEMPERATURE>
298

> <NMREDATA_FORMULA>
C38H38BN4O2Rh

> <NMREDATA_SMILES>
c1ccc(cc1)[B](c1ccccc1)(c1ccccc1)c1ccccc1.[O]#C[Rh](Cn1nc(cc1C)C)(Cn1nc(cc1C)C)C#[O]

> <NMREDATA_ASSIGNMENT>
Rh9, -109.00, 9

> <NMREDATA_1D_103Rh>
-109.00, L=Rh9

$$$$
