
  ACD/LABS02062414192D

 58 66  0  0  0  0  0  0  0  0  2 V2000
   16.7131  -14.5018    0.0000 Cl   0  5  0  0  0  0  0  0  0  0  0  0
   20.9387  -10.7668    0.0000 C    0  0  0  0  0  0  0  0  0  0  0  0
   19.9637  -11.6714    0.0000 C    0  0  0  0  0  0  0  0  0  0  0  0
   20.6427   -9.4701    0.0000 C    0  0  0  0  0  0  0  0  0  0  0  0
   18.6928  -11.2794    0.0000 C    0  0  0  0  0  0  0  0  0  0  0  0
   19.3718   -9.0781    0.0000 C    0  0  0  0  0  0  0  0  0  0  0  0
   18.3969   -9.9827    0.0000 C    0  0  0  0  0  0  0  0  0  0  0  0
   24.5426   -5.8516    0.0000 C    0  0  0  0  0  0  0  0  0  0  0  0
   24.8385   -7.1482    0.0000 C    0  0  0  0  0  0  0  0  0  0  0  0
   23.2717   -5.4596    0.0000 C    0  0  0  0  0  0  0  0  0  0  0  0
   23.8636   -8.0529    0.0000 C    0  0  0  0  0  0  0  0  0  0  0  0
   22.2967   -6.3642    0.0000 C    0  0  0  0  0  0  0  0  0  0  0  0
   22.5927   -7.6608    0.0000 C    0  0  0  0  0  0  0  0  0  0  0  0
   21.6177   -8.5655    0.0000 P    0  0  0  0  0  0  0  0  0  0  0  0
   20.5340   -5.2006    0.0000 C    0  0  0  0  0  0  0  0  0  0  0  0
   21.1990   -6.3524    0.0000 C    0  0  0  0  0  0  0  0  0  0  0  0
   19.2188   -5.0024    0.0000 C    0  0  0  0  0  0  0  0  0  0  0  0
   20.7131   -7.5905    0.0000 C    0  0  0  0  0  0  0  0  0  0  0  0
   18.2439   -5.9070    0.0000 C    0  0  0  0  0  0  0  0  0  0  0  0
   18.3433   -7.2333    0.0000 C    0  0  0  0  0  0  0  0  0  0  0  0
   19.4422   -7.9825    0.0000 C    0  0  0  0  0  0  0  0  0  0  0  0
   17.1450   -7.8104    0.0000 C    0  0  0  0  0  0  0  0  0  0  0  0
   17.0456   -9.1367    0.0000 C    0  0  0  0  0  0  0  0  0  0  0  0
   19.3428   -9.3088    0.0000 C    0  0  0  0  0  0  0  0  0  0  0  0
   21.1990   -4.0488    0.0000 C    0  0  0  0  0  0  0  0  0  0  0  0
   22.5290   -4.0488    0.0000 C    0  0  0  0  0  0  0  0  0  0  0  0
   22.5290   -6.3524    0.0000 C    0  0  0  0  0  0  0  0  0  0  0  0
   18.1445   -9.8859    0.0000 C    0  0  0  0  0  0  0  0  0  0  0  0
   23.1940   -5.2006    0.0000 C    0  0  0  0  0  0  0  0  0  0  0  0
   27.3169   -9.6275    0.0000 C    0  0  0  0  0  0  0  0  0  0  0  0
   26.0203   -9.9235    0.0000 C    0  0  0  0  0  0  0  0  0  0  0  0
   27.7090   -8.3566    0.0000 C    0  0  0  0  0  0  0  0  0  0  0  0
   25.1156   -8.9485    0.0000 C    0  0  0  0  0  0  0  0  0  0  0  0
   26.8043   -7.3817    0.0000 C    0  0  0  0  0  0  0  0  0  0  0  0
   25.5077   -7.6776    0.0000 C    0  0  0  0  0  0  0  0  0  0  0  0
   23.5230   -7.9478    0.0000 C    0  0  0  0  0  0  0  0  0  0  0  0
   22.2521   -7.5558    0.0000 C    0  0  0  0  0  0  0  0  0  0  0  0
   24.4980   -7.0432    0.0000 C    0  0  0  0  0  0  0  0  0  0  0  0
   21.9562   -6.2591    0.0000 C    0  0  0  0  0  0  0  0  0  0  0  0
   24.2020   -5.7465    0.0000 C    0  0  0  0  0  0  0  0  0  0  0  0
   22.9311   -5.3545    0.0000 C    0  0  0  0  0  0  0  0  0  0  0  0
   23.0751  -12.7004    0.0000 C    0  0  0  0  0  0  0  0  0  0  0  0
   23.0751  -11.3704    0.0000 C    0  0  0  0  0  0  0  0  0  0  0  0
   24.1149  -13.5296    0.0000 C    0  0  0  0  0  0  0  0  0  0  0  0
   24.1149  -10.5411    0.0000 C    0  0  0  0  0  0  0  0  0  0  0  0
   25.4116  -13.2337    0.0000 C    0  0  0  0  0  0  0  0  0  0  0  0
   25.9887  -12.0354    0.0000 C    0  0  0  0  0  0  0  0  0  0  0  0
   25.4116  -10.8371    0.0000 C    0  0  0  0  0  0  0  0  0  0  0  0
   27.3149  -12.1348    0.0000 C    0  0  0  0  0  0  0  0  0  0  0  0
   28.0642  -11.0359    0.0000 C    0  0  0  0  0  0  0  0  0  0  0  0
   26.1608   -9.7382    0.0000 C    0  0  0  0  0  0  0  0  0  0  0  0
   27.4871   -9.8376    0.0000 C    0  0  0  0  0  0  0  0  0  0  0  0
   21.9233  -13.3654    0.0000 C    0  0  0  0  0  0  0  0  0  0  0  0
   20.7715  -12.7004    0.0000 C    0  0  0  0  0  0  0  0  0  0  0  0
   21.9233  -10.7054    0.0000 C    0  0  0  0  0  0  0  0  0  0  0  0
   20.7715  -11.3704    0.0000 C    0  0  0  0  0  0  0  0  0  0  0  0
   22.5223   -9.5404    0.0000 Rh   0  3  0  0  0  0  0  0  0  0  0  0
   23.8190   -9.2445    0.0000 P    0  0  0  0  0  0  0  0  0  0  0  0
  2  3  1  0  0  0  0
  2  4  2  0  0  0  0
  3  5  2  0  0  0  0
  4  6  1  0  0  0  0
  5  7  1  0  0  0  0
  6  7  2  0  0  0  0
  8  9  1  0  0  0  0
  8 10  2  0  0  0  0
  9 11  2  0  0  0  0
 10 12  1  0  0  0  0
 11 13  1  0  0  0  0
 12 13  2  0  0  0  0
 15 17  1  0  0  0  0
 16 18  1  0  0  0  0
 17 19  2  0  0  0  0
 18 21  1  0  0  0  0
 19 20  1  0  0  0  0
 20 22  1  0  0  0  0
 20 21  2  0  0  0  0
 22 23  2  0  0  0  0
 21 24  1  0  0  0  0
 15 25  1  0  0  0  0
 15 16  2  0  0  0  0
 25 26  2  0  0  0  0
 16 27  1  0  0  0  0
 23 28  1  0  0  0  0
 28 24  2  0  0  0  0
 27 29  2  0  0  0  0
 29 26  1  0  0  0  0
 14 18  1  0  0  0  0
 13 14  1  0  0  0  0
  4 14  1  0  0  0  0
 30 31  1  0  0  0  0
 30 32  2  0  0  0  0
 31 33  2  0  0  0  0
 32 34  1  0  0  0  0
 33 35  1  0  0  0  0
 34 35  2  0  0  0  0
 36 37  1  0  0  0  0
 36 38  2  0  0  0  0
 37 39  2  0  0  0  0
 38 40  1  0  0  0  0
 39 41  1  0  0  0  0
 40 41  2  0  0  0  0
 42 44  1  0  0  0  0
 43 45  1  0  0  0  0
 44 46  2  0  0  0  0
 45 48  1  0  0  0  0
 46 47  1  0  0  0  0
 47 49  1  0  0  0  0
 47 48  2  0  0  0  0
 49 50  2  0  0  0  0
 48 51  1  0  0  0  0
 50 52  1  0  0  0  0
 51 52  2  0  0  0  0
 42 53  1  0  0  0  0
 42 43  2  0  0  0  0
 53 54  2  0  0  0  0
 43 55  1  0  0  0  0
 54 56  1  0  0  0  0
 55 56  2  0  0  0  0
 57 58  1  0  0  0  0
 45 58  1  0  0  0  0
 36 58  1  0  0  0  0
 33 58  1  0  0  0  0
 14 57  1  0  0  0  0
M  END
> <NMREDATA_VERSION>
1.1

> <NMREDATA_LEVEL>
0

> <NMREDATA_SOLVENT>
CD2Cl2

> <NMREDATA_TEMPERATURE>
248

> <NMREDATA_FORMULA>
C54H45ClP2Rh

> <NMREDATA_SMILES>
c1ccc(cc1)P(C1c2ccccc2C=Cc2c1cccc2)(c1ccccc1)[Rh]P(C1c2ccccc2C=Cc2c1cccc2)(c1ccccc1)c1ccccc1.Cl

> <NMREDATA_ASSIGNMENT>
Rh57, -253.00, 57

> <NMREDATA_1D_103Rh>
-253.00, L=Rh57

$$$$
