
  ACD/LABS03212412332D

 58 65  0  0  0  0  0  0  0  0  2 V2000
   15.2261   -9.3595    0.0000 C    0  0  0  0  0  0  0  0  0  0  0  0
   16.3822  -10.0171    0.0000 C    0  0  0  0  0  0  0  0  0  0  0  0
   14.0778  -10.0180    0.0000 C    0  0  0  0  0  0  0  0  0  0  0  0
   16.3819  -11.3482    0.0000 C    0  0  0  0  0  0  0  0  0  0  0  0
   14.0777  -11.3487    0.0000 C    0  0  0  0  0  0  0  0  0  0  0  0
   15.2295  -12.0137    0.0000 C    0  0  0  0  0  0  0  0  0  0  0  0
   11.6104   -9.5043    0.0000 P    0  0  0  0  0  0  0  0  0  0  0  0
    9.5902   -6.6181    0.0000 C    0  0  0  0  0  0  0  0  0  0  0  0
    9.9587   -7.8955    0.0000 C    0  0  0  0  0  0  0  0  0  0  0  0
   10.5098   -5.6639    0.0000 C    0  0  0  0  0  0  0  0  0  0  0  0
   11.2465   -8.2191    0.0000 C    0  0  0  0  0  0  0  0  0  0  0  0
   11.8097   -5.9847    0.0000 C    0  0  0  0  0  0  0  0  0  0  0  0
   12.1658   -7.2653    0.0000 C    0  0  0  0  0  0  0  0  0  0  0  0
   13.2629  -11.0926    0.0000 C    0  0  0  0  0  0  0  0  0  0  0  0
   13.6237  -12.3660    0.0000 C    0  0  0  0  0  0  0  0  0  0  0  0
   11.9677  -10.7647    0.0000 C    0  0  0  0  0  0  0  0  0  0  0  0
   12.6999  -13.3277    0.0000 C    0  0  0  0  0  0  0  0  0  0  0  0
   11.0517  -11.7308    0.0000 C    0  0  0  0  0  0  0  0  0  0  0  0
   11.4121  -13.0041    0.0000 C    0  0  0  0  0  0  0  0  0  0  0  0
   12.9260   -9.3530    0.0000 Rh   0  0  0  0  0  0  0  0  0  0  0  0
   11.8393   -5.0286    0.0000 P    0  0  0  0  0  0  0  0  0  0  0  0
   15.0718   -3.8641    0.0000 C    0  0  0  0  0  0  0  0  0  0  0  0
   13.7471   -3.9595    0.0000 C    0  0  0  0  0  0  0  0  0  0  0  0
   15.8121   -4.9572    0.0000 C    0  0  0  0  0  0  0  0  0  0  0  0
   13.1664   -5.1600    0.0000 C    0  0  0  0  0  0  0  0  0  0  0  0
   15.2314   -6.1577    0.0000 C    0  0  0  0  0  0  0  0  0  0  0  0
   13.9151   -6.2579    0.0000 C    0  0  0  0  0  0  0  0  0  0  0  0
   13.1873   -3.1547    0.0000 C    0  0  0  0  0  0  0  0  0  0  0  0
   13.3185   -1.8280    0.0000 C    0  0  0  0  0  0  0  0  0  0  0  0
   11.9707   -3.7015    0.0000 C    0  0  0  0  0  0  0  0  0  0  0  0
   12.2361   -1.0599    0.0000 C    0  0  0  0  0  0  0  0  0  0  0  0
   10.8926   -2.9259    0.0000 C    0  0  0  0  0  0  0  0  0  0  0  0
   11.0240   -1.5988    0.0000 C    0  0  0  0  0  0  0  0  0  0  0  0
   12.0005  -13.7229    0.0000 C    0  0  0  0  0  0  0  0  0  0  0  0
   11.7244  -15.0172    0.0000 C    0  0  0  0  0  0  0  0  0  0  0  0
   11.4510  -16.3240    0.0000 C    0  0  0  0  0  0  0  0  0  0  0  0
   10.1787  -16.7362    0.0000 C    0  0  0  0  0  0  0  0  0  0  0  0
   12.4348  -17.2094    0.0000 C    0  0  0  0  0  0  0  0  0  0  0  0
    9.9105  -18.0349    0.0000 C    0  0  0  0  0  0  0  0  0  0  0  0
   12.1616  -18.5158    0.0000 C    0  0  0  0  0  0  0  0  0  0  0  0
   10.8943  -18.9203    0.0000 C    0  0  0  0  0  0  0  0  0  0  0  0
   10.5617   -4.6701    0.0000 C    0  0  0  0  0  0  0  0  0  0  0  0
    9.6040   -5.6017    0.0000 C    0  0  0  0  0  0  0  0  0  0  0  0
   10.2298   -3.3830    0.0000 C    0  0  0  0  0  0  0  0  0  0  0  0
    8.3260   -5.2430    0.0000 C    0  0  0  0  0  0  0  0  0  0  0  0
    8.9446   -3.0196    0.0000 C    0  0  0  0  0  0  0  0  0  0  0  0
    7.9941   -3.9558    0.0000 C    0  0  0  0  0  0  0  0  0  0  0  0
   10.4126  -10.0719    0.0000 C    0  0  0  0  0  0  0  0  0  0  0  0
    9.3169   -9.3268    0.0000 C    0  0  0  0  0  0  0  0  0  0  0  0
   10.3206  -11.4013    0.0000 C    0  0  0  0  0  0  0  0  0  0  0  0
    8.1142   -9.9020    0.0000 C    0  0  0  0  0  0  0  0  0  0  0  0
    9.1183  -11.9768    0.0000 C    0  0  0  0  0  0  0  0  0  0  0  0
    8.0228  -11.2313    0.0000 C    0  0  0  0  0  0  0  0  0  0  0  0
   13.9091   -8.4663    0.0000 O    0  0  0  0  0  0  0  0  0  0  0  0
   13.6456   -7.1675    0.0000 O    0  0  0  0  0  0  0  0  0  0  0  0
   17.5337  -12.0132    0.0000 C    0  0  0  0  0  0  0  0  0  0  0  0
   18.6863  -11.3474    0.0000 N    0  3  0  0  0  0  0  0  0  0  0  0
   19.8389  -10.6815    0.0000 C    0  5  0  0  0  0  0  0  0  0  0  0
  1  2  1  0  0  0  0
  1  3  2  0  0  0  0
  2  4  2  0  0  0  0
  3  5  1  0  0  0  0
  4  6  1  0  0  0  0
  5  6  2  0  0  0  0
  8  9  1  0  0  0  0
  8 10  2  0  0  0  0
  9 11  2  0  0  0  0
 10 12  1  0  0  0  0
 11 13  1  0  0  0  0
 12 13  2  0  0  0  0
  7 11  1  0  0  0  0
 14 15  1  0  0  0  0
 14 16  2  0  0  0  0
 15 17  2  0  0  0  0
 16 18  1  0  0  0  0
 17 19  1  0  0  0  0
 18 19  2  0  0  0  0
  7 16  1  0  0  0  0
 20 21  1  0  0  0  0
 22 23  2  0  0  0  0
 22 24  1  0  0  0  0
 23 25  1  0  0  0  0
 24 26  2  0  0  0  0
 25 27  2  0  0  0  0
 26 27  1  0  0  0  0
 21 25  1  0  0  0  0
 28 29  1  0  0  0  0
 28 30  2  0  0  0  0
 29 31  2  0  0  0  0
 30 32  1  0  0  0  0
 31 33  1  0  0  0  0
 32 33  2  0  0  0  0
 21 30  1  0  0  0  0
  7 20  1  0  0  0  0
 20 34  1  0  0  0  0
 34 35  3  0  0  0  0
 36 37  1  0  0  0  0
 36 38  2  0  0  0  0
 37 39  2  0  0  0  0
 38 40  1  0  0  0  0
 39 41  1  0  0  0  0
 40 41  2  0  0  0  0
 35 36  1  0  0  0  0
 42 43  1  0  0  0  0
 42 44  2  0  0  0  0
 43 45  2  0  0  0  0
 44 46  1  0  0  0  0
 45 47  1  0  0  0  0
 46 47  2  0  0  0  0
 21 42  1  0  0  0  0
 48 49  1  0  0  0  0
 48 50  2  0  0  0  0
 49 51  2  0  0  0  0
 50 52  1  0  0  0  0
 51 53  1  0  0  0  0
 52 53  2  0  0  0  0
  7 48  1  0  0  0  0
 20 54  1  0  0  0  0
 54 55  2  0  0  0  0
  3 20  1  0  0  0  0
  4 56  1  0  0  0  0
 57 58  3  0  0  0  0
 56 57  1  0  0  0  0
M  END
> <NMREDATA_VERSION>
1.1

> <NMREDATA_LEVEL>
0

> <NMREDATA_SOLVENT>
toluene-d8

> <NMREDATA_TEMPERATURE>
300

> <NMREDATA_FORMULA>
C52H45NO2P2Rh

> <NMREDATA_SMILES>
C#NCc1ccc(cc1)[Rh](P(c1ccccc1)(c1ccccc1)c1ccccc1)(P(c1ccccc1)(c1ccccc1)c1ccccc1)(C#Cc1ccccc1)[O]=O

> <NMREDATA_ASSIGNMENT>
Rh20, 1010.00, 20

> <NMREDATA_1D_103Rh>
1010.00, L=Rh20

$$$$
