
  ACD/LABS03282419162D

 68 77  0  0  0  0  0  0  0  0  1 V2000
   16.1954  -10.7245    0.0000 N    0  0  0  0  0  0  0  0  0  0  0  0
   15.7423   -9.4697    0.0000 C    0  0  0  0  0  0  0  0  0  0  0  0
   17.5002  -10.9454    0.0000 C    0  0  0  0  0  0  0  0  0  0  0  0
   16.5941   -8.4555    0.0000 C    0  0  0  0  0  0  0  0  0  0  0  0
   18.3561   -9.9240    0.0000 C    0  0  0  0  0  0  0  0  0  0  0  0
   17.8986   -8.6769    0.0000 C    0  0  0  0  0  0  0  0  0  0  0  0
   11.3217  -14.7497    0.0000 C    0  0  0  0  0  0  0  0  0  0  0  0
   10.4735  -15.7755    0.0000 C    0  0  0  0  0  0  0  0  0  0  0  0
   12.6347  -14.9753    0.0000 C    0  0  0  0  0  0  0  0  0  0  0  0
   10.9305  -17.0224    0.0000 C    0  0  0  0  0  0  0  0  0  0  0  0
   13.0882  -16.2305    0.0000 C    0  0  0  0  0  0  0  0  0  0  0  0
   12.2444  -17.2486    0.0000 C    0  0  0  0  0  0  0  0  0  0  0  0
   14.2703  -16.1142    0.0000 C    0  0  0  0  0  0  0  0  0  0  0  0
   15.2916  -16.9701    0.0000 C    0  0  0  0  0  0  0  0  0  0  0  0
   14.5038  -14.8052    0.0000 C    0  0  0  0  0  0  0  0  0  0  0  0
   16.5388  -16.5126    0.0000 C    0  0  0  0  0  0  0  0  0  0  0  0
   15.7510  -14.3476    0.0000 C    0  0  0  0  0  0  0  0  0  0  0  0
   16.7723  -15.2035    0.0000 C    0  0  0  0  0  0  0  0  0  0  0  0
   13.0286  -12.7144    0.0000 C    0  0  0  0  0  0  0  0  0  0  0  0
   11.7723  -12.2656    0.0000 C    0  0  0  0  0  0  0  0  0  0  0  0
   14.0328  -11.8619    0.0000 C    0  0  0  0  0  0  0  0  0  0  0  0
   11.5278  -10.9686    0.0000 C    0  0  0  0  0  0  0  0  0  0  0  0
   13.7860  -10.5514    0.0000 C    0  0  0  0  0  0  0  0  0  0  0  0
   12.5370  -10.1074    0.0000 C    0  0  0  0  0  0  0  0  0  0  0  0
    8.1644   -8.2997    0.0000 C    0  0  0  0  0  0  0  0  0  0  0  0
    9.1897   -9.1476    0.0000 C    0  0  0  0  0  0  0  0  0  0  0  0
    8.3898   -6.9860    0.0000 C    0  0  0  0  0  0  0  0  0  0  0  0
   10.4341   -8.6783    0.0000 C    0  0  0  0  0  0  0  0  0  0  0  0
    9.6340   -6.5158    0.0000 C    0  0  0  0  0  0  0  0  0  0  0  0
   10.6558   -7.3720    0.0000 C    0  0  0  0  0  0  0  0  0  0  0  0
   10.2336  -12.8211    0.0000 C    0  0  0  0  0  0  0  0  0  0  0  0
   11.0816  -11.7958    0.0000 C    0  0  0  0  0  0  0  0  0  0  0  0
    8.9202  -12.5952    0.0000 C    0  0  0  0  0  0  0  0  0  0  0  0
   10.6117  -10.5523    0.0000 C    0  0  0  0  0  0  0  0  0  0  0  0
    8.4627  -11.3480    0.0000 C    0  0  0  0  0  0  0  0  0  0  0  0
    9.3109  -10.3222    0.0000 C    0  0  0  0  0  0  0  0  0  0  0  0
   12.1045   -6.0689    0.0000 C    0  0  0  0  0  0  0  0  0  0  0  0
   11.4471   -7.2253    0.0000 C    0  0  0  0  0  0  0  0  0  0  0  0
   13.4399   -6.0616    0.0000 C    0  0  0  0  0  0  0  0  0  0  0  0
   12.1250   -8.3745    0.0000 C    0  0  0  0  0  0  0  0  0  0  0  0
   14.1101   -7.2064    0.0000 C    0  0  0  0  0  0  0  0  0  0  0  0
   13.4527   -8.3628    0.0000 C    0  0  0  0  0  0  0  0  0  0  0  0
   18.0370  -19.2207    0.0000 C    0  0  0  0  0  0  0  0  0  0  0  0
   19.3411  -19.0015    0.0000 C    0  0  0  0  0  0  0  0  0  0  0  0
   17.1847  -18.1962    0.0000 C    0  0  0  0  0  0  0  0  0  0  0  0
   19.8057  -17.7536    0.0000 C    0  0  0  0  0  0  0  0  0  0  0  0
   17.6486  -16.9492    0.0000 C    0  0  0  0  0  0  0  0  0  0  0  0
   18.9652  -16.7262    0.0000 C    0  0  0  0  0  0  0  0  0  0  0  0
   15.3439  -11.7382    0.0000 Rh   0  0  0  0  0  0  0  0  0  0  0  0
   16.1881  -12.7581    0.0000 C    0  0  0  0  0  0  0  0  0  0  0  0
   17.2045  -13.6214    0.0000 N    0  0  0  0  0  0  0  0  0  0  0  0
   19.4247  -15.4869    0.0000 B    0  0  0  0  0  0  0  0  0  0  0  0
   19.8845  -14.2471    0.0000 C    0  0  0  0  0  0  0  0  0  0  0  0
   19.0369  -13.2144    0.0000 C    0  0  0  0  0  0  0  0  0  0  0  0
   21.1934  -14.0197    0.0000 C    0  0  0  0  0  0  0  0  0  0  0  0
   19.5009  -11.9674    0.0000 C    0  0  0  0  0  0  0  0  0  0  0  0
   21.6576  -12.7722    0.0000 C    0  0  0  0  0  0  0  0  0  0  0  0
   20.8130  -11.7521    0.0000 C    0  0  0  0  0  0  0  0  0  0  0  0
   20.6722  -15.9511    0.0000 C    0  0  0  0  0  0  0  0  0  0  0  0
   20.8929  -17.2549    0.0000 C    0  0  0  0  0  0  0  0  0  0  0  0
   21.6923  -15.1065    0.0000 C    0  0  0  0  0  0  0  0  0  0  0  0
   22.1399  -17.7189    0.0000 C    0  0  0  0  0  0  0  0  0  0  0  0
   22.9403  -15.5710    0.0000 C    0  0  0  0  0  0  0  0  0  0  0  0
   23.1600  -16.8755    0.0000 C    0  0  0  0  0  0  0  0  0  0  0  0
   15.1119  -10.4363    0.0000 H    0  0  0  0  0  0  0  0  0  0  0  0
   16.6448  -11.9670    0.0000 H    0  0  0  0  0  0  0  0  0  0  0  0
   11.4599   -9.5265    0.0000 P    0  0  0  0  0  0  0  0  0  0  0  0
   13.4862  -13.9616    0.0000 P    0  0  0  0  0  0  0  0  0  0  0  0
  1  2  1  0  0  0  0
  1  3  2  0  0  0  0
  2  4  2  0  0  0  0
  3  5  1  0  0  0  0
  4  6  1  0  0  0  0
  5  6  2  0  0  0  0
  7  8  1  0  0  0  0
  7  9  2  0  0  0  0
  8 10  2  0  0  0  0
  9 11  1  0  0  0  0
 10 12  1  0  0  0  0
 11 12  2  0  0  0  0
 13 14  1  0  0  0  0
 13 15  2  0  0  0  0
 14 16  2  0  0  0  0
 15 17  1  0  0  0  0
 16 18  1  0  0  0  0
 17 18  2  0  0  0  0
 19 20  1  0  0  0  0
 19 21  2  0  0  0  0
 20 22  2  0  0  0  0
 21 23  1  0  0  0  0
 22 24  1  0  0  0  0
 23 24  2  0  0  0  0
 25 26  1  0  0  0  0
 25 27  2  0  0  0  0
 26 28  2  0  0  0  0
 27 29  1  0  0  0  0
 28 30  1  0  0  0  0
 29 30  2  0  0  0  0
 31 32  1  0  0  0  0
 31 33  2  0  0  0  0
 32 34  2  0  0  0  0
 33 35  1  0  0  0  0
 34 36  1  0  0  0  0
 35 36  2  0  0  0  0
 37 38  1  0  0  0  0
 37 39  2  0  0  0  0
 38 40  2  0  0  0  0
 39 41  1  0  0  0  0
 40 42  1  0  0  0  0
 41 42  2  0  0  0  0
 43 44  1  0  0  0  0
 43 45  2  0  0  0  0
 44 46  2  0  0  0  0
 45 47  1  0  0  0  0
 46 48  1  0  0  0  0
 47 48  2  0  0  0  0
 50 51  3  0  0  0  0
 49 50  1  0  0  0  0
 51 52  1  0  0  0  0
 53 54  1  0  0  0  0
 53 55  2  0  0  0  0
 54 56  2  0  0  0  0
 55 57  1  0  0  0  0
 56 58  1  0  0  0  0
 57 58  2  0  0  0  0
 52 53  1  0  0  0  0
 59 60  1  0  0  0  0
 59 61  2  0  0  0  0
 60 62  2  0  0  0  0
 61 63  1  0  0  0  0
 62 64  1  0  0  0  0
 63 64  2  0  0  0  0
 52 59  1  0  0  0  0
 48 52  1  0  0  0  0
 49 65  1  0  0  0  0
 49 66  1  0  0  0  0
 49 67  1  0  0  0  0
 49 68  1  0  0  0  0
 40 67  1  0  0  0  0
 34 67  1  0  0  0  0
 28 67  1  0  0  0  0
 19 68  1  0  0  0  0
 15 68  1  0  0  0  0
  9 68  1  0  0  0  0
  1 49  1  0  0  0  0
M  END
> <NMREDATA_VERSION>
1.1

> <NMREDATA_LEVEL>
0

> <NMREDATA_SOLVENT>
toluene-d8

> <NMREDATA_TEMPERATURE>
300

> <NMREDATA_FORMULA>
C60H56BN2P2Rh

> <NMREDATA_SMILES>
c1ccc(cc1)[B](c1ccccc1)(c1ccccc1)N#C[RhH2](P(c1ccccc1)(c1ccccc1)c1ccccc1)(P(c1ccccc1)(c1ccccc1)c1ccccc1)N1=CC=CC=C1

> <NMREDATA_ASSIGNMENT>
Rh49, 2.00, 49

> <NMREDATA_1D_103Rh>
2.00, L=Rh49

$$$$
