
  ACD/LABS03122418152D

 18 17  0  0  0  0  0  0  0  0  1 V2000
    9.0011  -11.8381    0.0000 P    0  0  0  0  0  0  0  0  0  0  0  0
   10.6401  -11.4884    0.0000 C    0  0  0  0  0  0  0  0  0  0  0  0
    7.3871  -12.1894    0.0000 C    0  0  0  0  0  0  0  0  0  0  0  0
    9.3563  -13.4675    0.0000 C    0  0  0  0  0  0  0  0  0  0  0  0
    8.9371   -6.7713    0.0000 P    0  0  0  0  0  0  0  0  0  0  0  0
   10.3095   -7.7049    0.0000 C    0  0  0  0  0  0  0  0  0  0  0  0
    7.5491   -5.8418    0.0000 C    0  0  0  0  0  0  0  0  0  0  0  0
    9.8611   -5.3929    0.0000 C    0  0  0  0  0  0  0  0  0  0  0  0
    6.8191   -9.1284    0.0000 P    0  0  0  0  0  0  0  0  0  0  0  0
    7.8830  -10.3970    0.0000 C    0  0  0  0  0  0  0  0  0  0  0  0
    5.7513   -7.8444    0.0000 C    0  0  0  0  0  0  0  0  0  0  0  0
    5.5409  -10.1868    0.0000 C    0  0  0  0  0  0  0  0  0  0  0  0
    8.2576   -8.3037    0.0000 Rh   0  0  0  0  0  0  0  0  0  0  0  0
    7.0206   -7.1791    0.0000 H    0  0  0  0  0  0  0  0  0  0  0  0
   11.8544   -8.6739    0.0000 P    0  0  0  0  0  0  0  0  0  0  0  0
   11.6802  -10.3313    0.0000 C    0  0  0  0  0  0  0  0  0  0  0  0
   12.0287   -7.0166    0.0000 C    0  0  0  0  0  0  0  0  0  0  0  0
   13.5118   -8.8480    0.0000 C    0  0  0  0  0  0  0  0  0  0  0  0
  1  2  1  0  0  0  0
  1  3  1  0  0  0  0
  1  4  1  0  0  0  0
  5  6  1  0  0  0  0
  5  7  1  0  0  0  0
  5  8  1  0  0  0  0
  9 10  1  0  0  0  0
  9 11  1  0  0  0  0
  9 12  1  0  0  0  0
 13 14  1  0  0  0  0
 13 15  1  0  0  0  0
 15 16  1  0  0  0  0
 15 17  1  0  0  0  0
 15 18  1  0  0  0  0
  9 13  1  0  0  0  0
  5 13  1  0  0  0  0
  1 13  1  0  0  0  0
M  END
> <NMREDATA_VERSION>
1.1

> <NMREDATA_LEVEL>
0

> <NMREDATA_SOLVENT>
C6D6

> <NMREDATA_TEMPERATURE>
293

> <NMREDATA_FORMULA>
C12H41P4Rh

> <NMREDATA_SMILES>
CP([RhH](P(C)(C)C)(P(C)(C)C)P(C)(C)C)(C)C

> <NMREDATA_ASSIGNMENT>
Rh13, -735.00, 13

> <NMREDATA_1D_103Rh>
-735.00, L=Rh13

$$$$
