
  ACD/LABS04032413372D

 19 17  0  0  0  0  0  0  0  0  2 V2000
   15.6075  -13.5083    0.0000 S    0  0  0  0  0  0  0  0  0  0  0  0
   16.3606  -12.0501    0.0000 C    0  0  0  0  0  0  0  0  0  0  0  0
   15.3511  -12.0181    0.0000 C    0  0  0  0  0  0  0  0  0  0  0  0
   14.5980  -15.3190    0.0000 Rh   0  5  0  0  0  0  0  0  0  0  0  0
   13.7006  -16.9695    0.0000 S    0  0  0  0  0  0  0  0  0  0  0  0
   12.7231  -15.7677    0.0000 S    0  3  0  0  0  0  0  0  0  0  0  0
   16.4728  -14.9505    0.0000 S    0  3  0  0  0  0  0  0  0  0  0  0
   14.1653  -17.9149    0.0000 C    0  0  0  0  0  0  0  0  0  0  0  0
   12.7231  -17.5945    0.0000 C    0  0  0  0  0  0  0  0  0  0  0  0
   12.6430  -16.5849    0.0000 C    0  0  0  0  0  0  0  0  0  0  0  0
   11.7136  -15.8799    0.0000 C    0  0  0  0  0  0  0  0  0  0  0  0
   17.7707  -14.5018    0.0000 C    0  0  0  0  0  0  0  0  0  0  0  0
   17.1778  -13.0276    0.0000 C    0  0  0  0  0  0  0  0  0  0  0  0
   12.6430  -14.6300    0.0000 Br   0  0  0  0  0  0  0  0  0  0  0  0
   16.1683  -16.2965    0.0000 Br   0  0  0  0  0  0  0  0  0  0  0  0
   26.1874  -12.5469    0.0000 N    0  0  0  0  0  0  0  0  0  0  0  0
   26.8524  -13.6987    0.0000 O    0  5  0  0  0  0  0  0  0  0  0  0
   26.8524  -11.3951    0.0000 O    0  0  0  0  0  0  0  0  0  0  0  0
   24.6931  -12.1783    0.0000 O    0  0  0  0  0  0  0  0  0  0  0  0
  1  2  1  0  0  0  0
  1  3  1  0  0  0  0
  4  5  1  0  0  0  0
  4  6  1  0  0  0  0
  4  7  1  0  0  0  0
  5  8  1  0  0  0  0
  5  9  1  0  0  0  0
  6 10  1  0  0  0  0
  6 11  1  0  0  0  0
  7 12  1  0  0  0  0
  7 13  1  0  0  0  0
  4 14  1  0  0  0  0
  4 15  1  0  0  0  0
  1  4  1  0  0  0  0
 16 17  1  0  0  0  0
 16 18  2  0  0  0  0
 16 19  2  0  0  0  0
M  END
> <NMREDATA_VERSION>
1.1

> <NMREDATA_LEVEL>
0

> <NMREDATA_SOLVENT>
nitromethane

> <NMREDATA_FORMULA>
C8H29Br2NO3RhS4

> <NMREDATA_SMILES>
CS([Rh](S(C)C)(S(C)C)(S(C)C)(Br)Br)C.ON(=O)=O

> <NMREDATA_ASSIGNMENT>
Rh4, 2756.00, 4

> <NMREDATA_1D_103Rh>
2756.00, L=Rh4

$$$$
