
  ACD/LABS04022410392D

 22 18  0  0  0  0  0  0  0  0  2 V2000
   17.0657  -14.5178    0.0000 K    0  3  0  0  0  0  0  0  0  0  0  0
   18.0431  -14.6460    0.0000 K    0  3  0  0  0  0  0  0  0  0  0  0
   19.0847  -14.8063    0.0000 K    0  3  0  0  0  0  0  0  0  0  0  0
   13.7166  -16.4407    0.0000 S    0  0  0  0  0  0  0  0  0  0  0  0
   15.0466  -16.4407    0.0000 C    0  0  0  0  0  0  0  0  0  0  0  0
   16.3766  -16.4407    0.0000 N    0  0  0  0  0  0  0  0  0  0  0  0
   11.7598  -20.6749    0.0000 N    0  0  0  0  0  0  0  0  0  0  0  0
   12.3007  -21.9248    0.0000 C    0  0  0  0  0  0  0  0  0  0  0  0
   12.8161  -22.6978    0.0000 S    0  0  0  0  0  0  0  0  0  0  0  0
   10.8432  -17.4762    0.0000 N    0  0  0  0  0  0  0  0  0  0  0  0
   10.0208  -16.1081    0.0000 C    0  0  0  0  0  0  0  0  0  0  0  0
    9.3959  -15.1626    0.0000 S    0  0  0  0  0  0  0  0  0  0  0  0
   10.8432  -18.8062    0.0000 N    0  0  0  0  0  0  0  0  0  0  0  0
   10.8432  -20.1362    0.0000 C    0  0  0  0  0  0  0  0  0  0  0  0
   10.8432  -21.4662    0.0000 S    0  0  0  0  0  0  0  0  0  0  0  0
   11.9950  -18.1412    0.0000 Rh   0  7  0  0  0  0  0  0  0  0  0  0
   13.7730  -18.0745    0.0000 S    0  0  0  0  0  0  0  0  0  0  0  0
   14.5262  -18.2347    0.0000 C    0  0  0  0  0  0  0  0  0  0  0  0
   16.2888  -18.5071    0.0000 N    0  0  0  0  0  0  0  0  0  0  0  0
   12.0860  -16.3522    0.0000 S    0  0  0  0  0  0  0  0  0  0  0  0
   12.2642  -15.3389    0.0000 C    0  0  0  0  0  0  0  0  0  0  0  0
   13.1494  -14.4576    0.0000 N    0  0  0  0  0  0  0  0  0  0  0  0
  4  5  1  0  0  0  0
  5  6  3  0  0  0  0
  7  8  2  0  0  0  0
  8  9  2  0  0  0  0
 10 11  2  0  0  0  0
 11 12  2  0  0  0  0
 13 14  2  0  0  0  0
 14 15  2  0  0  0  0
 17 18  1  0  0  0  0
 18 19  3  0  0  0  0
 16 17  1  0  0  0  0
 20 21  1  0  0  0  0
 21 22  3  0  0  0  0
 16 20  1  0  0  0  0
 13 16  1  0  0  0  0
 10 16  1  0  0  0  0
  7 16  1  0  0  0  0
  4 16  1  0  0  0  0
M  END
> <NMREDATA_VERSION>
1.1

> <NMREDATA_LEVEL>
0

> <NMREDATA_SOLVENT>
CD2Cl2

> <NMREDATA_TEMPERATURE>
243

> <NMREDATA_FORMULA>
C6H3K3N6RhS6

> <NMREDATA_SMILES>
N#CS[Rh](N=C=S)(N=C=S)(N=C=S)(SC#N)SC#N.[KH].[KH].[KH]

> <NMREDATA_ASSIGNMENT>
Rh16, 4526.00, 16

> <NMREDATA_1D_103Rh>
4526.00, L=Rh16

$$$$
