
  ACD/LABS02122415412D

 32 34  0  0  0  0  0  0  0  0  2 V2000
   13.0348   -4.6474    0.0000 C    0  0  0  0  0  0  0  0  0  0  0  0
   20.4427  -10.5804    0.0000 C    0  0  0  0  0  0  0  0  0  0  0  0
   17.5744  -10.5804    0.0000 C    0  0  0  0  0  0  0  0  0  0  0  0
   21.8768   -8.0964    0.0000 C    0  0  0  0  0  0  0  0  0  0  0  0
   16.1402   -8.0964    0.0000 C    0  0  0  0  0  0  0  0  0  0  0  0
   20.4427   -5.6123    0.0000 C    0  0  0  0  0  0  0  0  0  0  0  0
   17.5744   -5.6123    0.0000 C    0  0  0  0  0  0  0  0  0  0  0  0
   13.3346   -7.5000    0.0000 N    0  3  0  0  0  0  0  0  0  0  0  0
   11.2030   -9.4193    0.0000 C    0  0  0  0  0  0  0  0  0  0  0  0
   15.6551   -3.4808    0.0000 N    0  0  0  0  0  0  0  0  0  0  0  0
   16.2514   -0.6751    0.0000 C    0  0  0  0  0  0  0  0  0  0  0  0
   13.4598  -21.9065    0.0000 C    0  0  0  0  0  0  0  0  0  0  0  0
   21.8768  -13.0644    0.0000 Rh   0  6  0  0  0  0  0  0  0  0  0  0
   24.3609  -11.6303    0.0000 Cl   0  0  0  0  0  0  0  0  0  0  0  0
   19.3928  -14.4986    0.0000 C    0  0  0  0  0  0  0  0  0  0  0  0
   19.3928  -17.3669    0.0000 C    0  0  0  0  0  0  0  0  0  0  0  0
   16.9088  -13.0644    0.0000 C    0  0  0  0  0  0  0  0  0  0  0  0
   16.9088  -18.8011    0.0000 C    0  0  0  0  0  0  0  0  0  0  0  0
   14.4247  -14.4986    0.0000 C    0  0  0  0  0  0  0  0  0  0  0  0
   14.4247  -17.3669    0.0000 C    0  0  0  0  0  0  0  0  0  0  0  0
   16.3124  -21.6067    0.0000 N    0  0  0  0  0  0  0  0  0  0  0  0
   18.2317  -23.7383    0.0000 C    0  0  0  0  0  0  0  0  0  0  0  0
   12.2932  -19.2862    0.0000 N    0  3  0  0  0  0  0  0  0  0  0  0
    9.4875  -18.6898    0.0000 C    0  0  0  0  0  0  0  0  0  0  0  0
   23.3104  -15.5488    0.0000 C    0  0  0  0  0  0  0  0  0  0  0  0
   26.1544  -15.1751    0.0000 C    0  0  0  0  0  0  0  0  0  0  0  0
   21.5637  -17.8240    0.0000 C    0  0  0  0  0  0  0  0  0  0  0  0
   21.9376  -20.6678    0.0000 C    0  0  0  0  0  0  0  0  0  0  0  0
   28.4293  -16.9216    0.0000 C    0  0  0  0  0  0  0  0  0  0  0  0
   24.2126  -22.4143    0.0000 C    0  0  0  0  0  0  0  0  0  0  0  0
   28.8031  -19.7656    0.0000 C    0  0  0  0  0  0  0  0  0  0  0  0
   27.0564  -22.0408    0.0000 C    0  0  0  0  0  0  0  0  0  0  0  0
  2  3  1  0  0  0  0
  2  4  2  0  0  0  0
  3  5  2  0  0  0  0
  4  6  1  0  0  0  0
  5  7  1  0  0  0  0
  6  7  2  0  0  0  0
  5  8  1  0  0  0  0
  8  9  1  0  0  0  0
 10 11  1  0  0  0  0
  1 10  2  0  0  0  0
  1  8  2  0  0  0  0
 13 14  1  0  0  0  0
 15 16  1  0  0  0  0
 15 17  2  0  0  0  0
 16 18  2  0  0  0  0
 17 19  1  0  0  0  0
 18 20  1  0  0  0  0
 19 20  2  0  0  0  0
 13 15  1  0  0  0  0
 21 22  1  0  0  0  0
 20 23  1  0  0  0  0
 23 24  1  0  0  0  0
 12 23  2  0  0  0  0
 12 21  2  0  0  0  0
  2 13  1  0  0  0  0
 25 26  1  0  0  0  0
 25 27  1  0  0  0  0
 26 29  1  0  0  0  0
 27 28  2  0  0  0  0
 28 30  1  0  0  0  0
 29 31  2  0  0  0  0
 30 32  1  0  0  0  0
 31 32  1  0  0  0  0
 13 25  1  0  0  0  0
M  END
> <NMREDATA_VERSION>
1.1

> <NMREDATA_LEVEL>
0

> <NMREDATA_SOLVENT>
DCCl3

> <NMREDATA_TEMPERATURE>
298

> <NMREDATA_FORMULA>
C26H33ClN4Rh

> <NMREDATA_SMILES>
CN=C=N(c1ccc(cc1)[Rh](c1cccc(c1)N(=C=NC)C)(C1C=CCCC=CC1)Cl)C

> <NMREDATA_ASSIGNMENT>
Rh13, 642.00, 13

> <NMREDATA_1D_103Rh>
642.00, L=Rh13

$$$$
