
  ACD/LABS02122411402D

 17 17  0  0  0  0  0  0  0  0  1 V2000
   18.6446  -11.1952    0.0000 C    0  0  0  0  0  0  0  0  0  0  0  0
   19.3096  -10.0434    0.0000 C    0  0  0  0  0  0  0  0  0  0  0  0
   18.9888  -12.4799    0.0000 C    0  0  0  0  0  0  0  0  0  0  0  0
   20.1406  -13.1449    0.0000 C    0  0  0  0  0  0  0  0  0  0  0  0
   20.5943   -9.6992    0.0000 C    0  0  0  0  0  0  0  0  0  0  0  0
   21.4253  -12.8006    0.0000 C    0  0  0  0  0  0  0  0  0  0  0  0
   21.7461  -10.3642    0.0000 C    0  0  0  0  0  0  0  0  0  0  0  0
   22.0903  -11.6488    0.0000 C    0  0  0  0  0  0  0  0  0  0  0  0
   18.4999   -8.9882    0.0000 Rh   0  0  0  0  0  0  0  0  0  0  0  0
   19.0089   -7.7595    0.0000 C    0  0  0  0  0  0  0  0  0  0  0  0
   17.1813   -9.1618    0.0000 P    0  0  0  0  0  0  0  0  0  0  0  0
   17.0077   -7.8432    0.0000 O    0  0  0  0  0  0  0  0  0  0  0  0
   17.3549  -10.4804    0.0000 O    0  0  0  0  0  0  0  0  0  0  0  0
   15.8627   -9.3354    0.0000 O    0  0  0  0  0  0  0  0  0  0  0  0
   15.7790   -7.3342    0.0000 C    0  0  0  0  0  0  0  0  0  0  0  0
   16.2998  -11.2901    0.0000 C    0  0  0  0  0  0  0  0  0  0  0  0
   15.0531   -8.2803    0.0000 C    0  0  0  0  0  0  0  0  0  0  0  0
  1  2  1  0  0  0  0
  1  3  1  0  0  0  0
  2  5  1  0  0  0  0
  3  4  2  0  0  0  0
  4  6  1  0  0  0  0
  5  7  2  0  0  0  0
  6  8  1  0  0  0  0
  7  8  1  0  0  0  0
  9 10  1  0  0  0  0
  2  9  1  0  0  0  0
  9 11  1  0  0  0  0
 11 12  1  0  0  0  0
 11 13  1  0  0  0  0
 11 14  1  0  0  0  0
 12 15  1  0  0  0  0
 13 16  1  0  0  0  0
 14 17  1  0  0  0  0
M  END
> <NMREDATA_VERSION>
1.1

> <NMREDATA_LEVEL>
0

> <NMREDATA_SOLVENT>
C6D6

> <NMREDATA_TEMPERATURE>
298

> <NMREDATA_FORMULA>
C12H24O3PRh

> <NMREDATA_SMILES>
COP([Rh](C1C=CCCC=CC1)C)(OC)OC

> <NMREDATA_ASSIGNMENT>
Rh9, -129.00, 9

> <NMREDATA_1D_103Rh>
-129.00, L=Rh9

$$$$
