
  ACD/LABS02222414142D

 14 14  0  0  0  0  0  0  0  0  2 V2000
   16.4336   -8.1133    0.0000 C    0  0  0  0  0  0  0  0  0  0  0  0
   15.1001   -8.1133    0.0000 C    0  0  0  0  0  0  0  0  0  0  0  0
   16.8424   -9.3755    0.0000 C    0  0  0  0  0  0  0  0  0  0  0  0
   14.6915   -9.3755    0.0000 C    0  0  0  0  0  0  0  0  0  0  0  0
   15.7669  -10.1579    0.0000 C    0  0  0  0  0  0  0  0  0  0  0  0
   14.6738  -10.9043    0.0000 Rh   0  2  0  0  0  0  0  0  0  0  0  0
   14.5403  -12.2288    0.0000 C    0  0  0  0  0  0  0  0  0  0  0  0
   13.4738  -10.3355    0.0000 C    0  0  0  0  0  0  0  0  0  0  0  0
   14.4071  -13.5532    0.0000 O    0  0  0  0  0  0  0  0  0  0  0  0
   12.2738   -9.7488    0.0000 O    0  0  0  0  0  0  0  0  0  0  0  0
   16.5490  -11.2331    0.0000 C    0  0  0  0  0  0  0  0  0  0  0  0
   15.4735  -12.0154    0.0000 O    0  5  0  0  0  0  0  0  0  0  0  0
   17.6246  -10.4599    0.0000 C    0  0  0  0  0  0  0  0  0  0  0  0
   17.3314  -12.3087    0.0000 O    0  5  0  0  0  0  0  0  0  0  0  0
  1  2  1  0  0  0  0
  1  3  2  0  0  0  0
  2  4  2  0  0  0  0
  3  5  1  0  0  0  0
  4  5  1  0  0  0  0
  5  6  1  0  0  0  0
  6  7  1  0  0  0  0
  6  8  1  0  0  0  0
  7  9  3  0  0  0  0
  8 10  3  0  0  0  0
  5 11  1  0  0  0  0
 11 12  1  0  0  0  0
 11 13  1  0  0  0  0
 11 14  1  0  0  0  0
M  END
> <NMREDATA_VERSION>
1.1

> <NMREDATA_LEVEL>
0

> <NMREDATA_SOLVENT>
C6D6

> <NMREDATA_TEMPERATURE>
298

> <NMREDATA_FORMULA>
C9H9O4Rh

> <NMREDATA_SMILES>
[O]#C[Rh](C1(C=CC=C1)C(O)(O)C)C#[O]

> <NMREDATA_ASSIGNMENT>
Rh6, -1205.00, 6

> <NMREDATA_1D_103Rh>
-1205.00, L=Rh6

$$$$
