
  ACD/LABS04072411362D

 29 29  0  0  0  0  0  0  0  0  1 V2000
   20.7406  -11.0965    0.0000 C    0  0  0  0  0  0  0  0  0  0  0  0
   21.2816  -12.3115    0.0000 C    0  0  0  0  0  0  0  0  0  0  0  0
   19.4179  -11.2355    0.0000 C    0  0  0  0  0  0  0  0  0  0  0  0
   20.2932  -13.2014    0.0000 C    0  0  0  0  0  0  0  0  0  0  0  0
   19.1414  -12.5364    0.0000 C    0  0  0  0  0  0  0  0  0  0  0  0
   20.4307  -13.7807    0.0000 Si   0  0  0  0  0  0  0  0  0  0  0  0
   22.2735  -13.9089    0.0000 C    0  0  0  0  0  0  0  0  0  0  0  0
   22.8570  -15.1041    0.0000 C    0  0  0  0  0  0  0  0  0  0  0  0
   21.2159  -14.4217    0.0000 C    0  0  0  0  0  0  0  0  0  0  0  0
   21.0027  -15.7345    0.0000 C    0  0  0  0  0  0  0  0  0  0  0  0
   20.2064  -14.4698    0.0000 C    0  0  0  0  0  0  0  0  0  0  0  0
   18.9053  -14.7455    0.0000 C    0  0  0  0  0  0  0  0  0  0  0  0
   17.5105  -10.5379    0.0000 Rh   0  0  0  0  0  0  0  0  0  0  0  0
   16.2591   -7.7273    0.0000 H    0  0  0  0  0  0  0  0  0  0  0  0
   16.8709  -13.5473    0.0000 H    0  0  0  0  0  0  0  0  0  0  0  0
   19.7969   -8.4793    0.0000 Si   0  0  0  0  0  0  0  0  0  0  0  0
   14.4507  -10.8595    0.0000 Si   0  0  0  0  0  0  0  0  0  0  0  0
   21.8556  -10.7657    0.0000 C    0  0  0  0  0  0  0  0  0  0  0  0
   22.0833   -6.4206    0.0000 C    0  0  0  0  0  0  0  0  0  0  0  0
   14.7723  -13.9193    0.0000 C    0  0  0  0  0  0  0  0  0  0  0  0
   11.3910  -11.1811    0.0000 C    0  0  0  0  0  0  0  0  0  0  0  0
   12.9314   -9.1978    0.0000 C    0  0  0  0  0  0  0  0  0  0  0  0
   13.3328   -7.9298    0.0000 C    0  0  0  0  0  0  0  0  0  0  0  0
   10.6092  -10.1051    0.0000 C    0  0  0  0  0  0  0  0  0  0  0  0
   13.6964  -14.7011    0.0000 C    0  0  0  0  0  0  0  0  0  0  0  0
   18.7802   -6.8583    0.0000 C    0  0  0  0  0  0  0  0  0  0  0  0
   19.4027   -5.6830    0.0000 C    0  0  0  0  0  0  0  0  0  0  0  0
   23.3482   -6.8316    0.0000 C    0  0  0  0  0  0  0  0  0  0  0  0
   24.0522   -9.9189    0.0000 C    0  0  0  0  0  0  0  0  0  0  0  0
  1  2  2  0  0  0  0
  1  3  1  0  0  0  0
  2  4  1  0  0  0  0
  3  5  2  0  0  0  0
  4  5  1  0  0  0  0
  4  6  1  0  0  0  0
  6  7  1  0  0  0  0
  7  8  1  0  0  0  0
  6  9  1  0  0  0  0
  9 10  1  0  0  0  0
  6 11  1  0  0  0  0
 11 12  1  0  0  0  0
 13 14  1  0  0  0  0
 13 15  1  0  0  0  0
 13 16  1  0  0  0  0
 13 17  1  0  0  0  0
 16 18  1  0  0  0  0
 16 19  1  0  0  0  0
 17 20  1  0  0  0  0
 17 21  1  0  0  0  0
 17 22  1  0  0  0  0
 22 23  1  0  0  0  0
 21 24  1  0  0  0  0
 20 25  1  0  0  0  0
 16 26  1  0  0  0  0
 26 27  1  0  0  0  0
 19 28  1  0  0  0  0
 18 29  1  0  0  0  0
  3 13  1  0  0  0  0
M  END
> <NMREDATA_VERSION>
1.1

> <NMREDATA_LEVEL>
0

> <NMREDATA_SOLVENT>
toluene-d8

> <NMREDATA_FORMULA>
C23H51RhSi3

> <NMREDATA_SMILES>
CC[Si](C1C=CC(=C1)[RhH2]([Si](CC)(CC)CC)[Si](CC)(CC)CC)(CC)CC

> <NMREDATA_ASSIGNMENT>
Rh13, -1908.00, 13

> <NMREDATA_1D_103Rh>
-1908.00, L=Rh13

$$$$
