
  ACD/LABS03312418032D

 49 55  0  0  0  0  0  0  0  0  1 V2000
   20.2432  -19.2760    0.0000 C    0  0  0  0  0  0  0  0  0  0  0  0
   21.0940  -18.2566    0.0000 C    0  0  0  0  0  0  0  0  0  0  0  0
   18.9311  -19.0456    0.0000 C    0  0  0  0  0  0  0  0  0  0  0  0
   20.6419  -17.0067    0.0000 C    0  0  0  0  0  0  0  0  0  0  0  0
   18.4790  -17.7957    0.0000 C    0  0  0  0  0  0  0  0  0  0  0  0
   19.3298  -16.7762    0.0000 C    0  0  0  0  0  0  0  0  0  0  0  0
   15.4118  -19.0456    0.0000 C    0  0  0  0  0  0  0  0  0  0  0  0
   14.0997  -19.2760    0.0000 C    0  0  0  0  0  0  0  0  0  0  0  0
   15.8548  -17.7957    0.0000 C    0  0  0  0  0  0  0  0  0  0  0  0
   13.2485  -18.2566    0.0000 C    0  0  0  0  0  0  0  0  0  0  0  0
   15.0127  -16.7762    0.0000 C    0  0  0  0  0  0  0  0  0  0  0  0
   13.7006  -17.0067    0.0000 C    0  0  0  0  0  0  0  0  0  0  0  0
   17.1669  -18.8949    0.0000 C    0  0  0  0  0  0  0  0  0  0  0  0
   16.0143  -19.5599    0.0000 C    0  0  0  0  0  0  0  0  0  0  0  0
   18.3191  -19.5599    0.0000 C    0  0  0  0  0  0  0  0  0  0  0  0
   16.0143  -20.8895    0.0000 C    0  0  0  0  0  0  0  0  0  0  0  0
   18.3191  -20.8895    0.0000 C    0  0  0  0  0  0  0  0  0  0  0  0
   17.1669  -21.5545    0.0000 C    0  0  0  0  0  0  0  0  0  0  0  0
   17.1669  -16.2352    0.0000 Rh   0  0  0  0  0  0  0  0  0  0  0  0
   18.3191  -16.9002    0.0000 Cl   0  0  0  0  0  0  0  0  0  0  0  0
   16.0143  -16.9002    0.0000 Cl   0  0  0  0  0  0  0  0  0  0  0  0
   18.3191  -15.5797    0.0000 H    0  0  0  0  0  0  0  0  0  0  0  0
   13.3019  -14.0105    0.0000 P    0  0  0  0  0  0  0  0  0  0  0  0
   17.1669  -17.5652    0.0000 P    0  0  0  0  0  0  0  0  0  0  0  0
   12.6369  -17.4588    0.0000 C    0  0  0  0  0  0  0  0  0  0  0  0
   11.3069  -17.4588    0.0000 C    0  0  0  0  0  0  0  0  0  0  0  0
   13.3019  -16.3062    0.0000 C    0  0  0  0  0  0  0  0  0  0  0  0
   10.6423  -16.3062    0.0000 C    0  0  0  0  0  0  0  0  0  0  0  0
   12.6369  -15.1631    0.0000 C    0  0  0  0  0  0  0  0  0  0  0  0
   11.3069  -15.1631    0.0000 C    0  0  0  0  0  0  0  0  0  0  0  0
   13.9666  -10.5618    0.0000 C    0  0  0  0  0  0  0  0  0  0  0  0
   15.2966  -10.5618    0.0000 C    0  0  0  0  0  0  0  0  0  0  0  0
   13.3019  -11.7144    0.0000 C    0  0  0  0  0  0  0  0  0  0  0  0
   15.9521  -11.7144    0.0000 C    0  0  0  0  0  0  0  0  0  0  0  0
   13.9666  -12.8579    0.0000 C    0  0  0  0  0  0  0  0  0  0  0  0
   15.2966  -12.8579    0.0000 C    0  0  0  0  0  0  0  0  0  0  0  0
    9.8533  -12.0158    0.0000 C    0  0  0  0  0  0  0  0  0  0  0  0
    9.8533  -13.3455    0.0000 C    0  0  0  0  0  0  0  0  0  0  0  0
   11.0055  -11.3508    0.0000 C    0  0  0  0  0  0  0  0  0  0  0  0
   11.0055  -14.0105    0.0000 C    0  0  0  0  0  0  0  0  0  0  0  0
   12.1581  -12.0158    0.0000 C    0  0  0  0  0  0  0  0  0  0  0  0
   12.1581  -13.3455    0.0000 C    0  0  0  0  0  0  0  0  0  0  0  0
   17.1669  -14.9147    0.0000 N    0  0  0  0  0  0  0  0  0  0  0  0
   18.2394  -14.1345    0.0000 N    0  0  0  0  0  0  0  0  0  0  0  0
   16.0940  -14.1345    0.0000 C    0  0  0  0  0  0  0  0  0  0  0  0
   17.8315  -12.8758    0.0000 C    0  0  0  0  0  0  0  0  0  0  0  0
   16.5019  -12.8758    0.0000 C    0  0  0  0  0  0  0  0  0  0  0  0
   18.6117  -11.7942    0.0000 C    0  0  0  0  0  0  0  0  0  0  0  0
   14.8353  -14.5511    0.0000 C    0  0  0  0  0  0  0  0  0  0  0  0
  1  2  1  0  0  0  0
  1  3  2  0  0  0  0
  2  4  2  0  0  0  0
  3  5  1  0  0  0  0
  4  6  1  0  0  0  0
  5  6  2  0  0  0  0
  7  8  1  0  0  0  0
  7  9  2  0  0  0  0
  8 10  2  0  0  0  0
  9 11  1  0  0  0  0
 10 12  1  0  0  0  0
 11 12  2  0  0  0  0
 13 14  1  0  0  0  0
 13 15  2  0  0  0  0
 14 16  2  0  0  0  0
 15 17  1  0  0  0  0
 16 18  1  0  0  0  0
 17 18  2  0  0  0  0
 19 20  1  0  0  0  0
 19 21  1  0  0  0  0
 19 22  1  0  0  0  0
 19 23  1  0  0  0  0
 19 24  1  0  0  0  0
 13 24  1  0  0  0  0
  9 24  1  0  0  0  0
  5 24  1  0  0  0  0
 25 26  1  0  0  0  0
 25 27  2  0  0  0  0
 26 28  2  0  0  0  0
 27 29  1  0  0  0  0
 28 30  1  0  0  0  0
 29 30  2  0  0  0  0
 23 29  1  0  0  0  0
 31 32  1  0  0  0  0
 31 33  2  0  0  0  0
 32 34  2  0  0  0  0
 33 35  1  0  0  0  0
 34 36  1  0  0  0  0
 35 36  2  0  0  0  0
 23 35  1  0  0  0  0
 37 38  1  0  0  0  0
 37 39  2  0  0  0  0
 38 40  2  0  0  0  0
 39 41  1  0  0  0  0
 40 42  1  0  0  0  0
 41 42  2  0  0  0  0
 23 42  1  0  0  0  0
 43 44  1  0  0  0  0
 43 45  1  0  0  0  0
 44 46  2  0  0  0  0
 45 47  2  0  0  0  0
 46 47  1  0  0  0  0
 19 43  1  0  0  0  0
 46 48  1  0  0  0  0
 45 49  1  0  0  0  0
M  END
> <NMREDATA_VERSION>
1.1

> <NMREDATA_LEVEL>
0

> <NMREDATA_SOLVENT>
CD2Cl2

> <NMREDATA_TEMPERATURE>
300

> <NMREDATA_FORMULA>
C41H40Cl2N2P2Rh

> <NMREDATA_SMILES>
Cc1cc(n(n1)[RhH](P(c1ccccc1)(c1ccccc1)c1ccccc1)(P(c1ccccc1)(c1ccccc1)c1ccccc1)(Cl)Cl)C

> <NMREDATA_ASSIGNMENT>
Rh19, 2091.00, 19

> <NMREDATA_1D_103Rh>
2091.00, L=Rh19

$$$$
