
  ACD/LABS03292412382D

 54 60  0  0  0  0  0  0  0  0  1 V2000
   27.2281  -14.0831    0.0000 C    0  0  0  0  0  0  0  0  0  0  0  0
   28.0887  -13.0629    0.0000 C    0  0  0  0  0  0  0  0  0  0  0  0
   25.9245  -13.8612    0.0000 C    0  0  0  0  0  0  0  0  0  0  0  0
   27.6274  -11.8213    0.0000 C    0  0  0  0  0  0  0  0  0  0  0  0
   25.4632  -12.6104    0.0000 C    0  0  0  0  0  0  0  0  0  0  0  0
   26.3146  -11.5907    0.0000 C    0  0  0  0  0  0  0  0  0  0  0  0
   25.0638  -14.8814    0.0000 C    0  0  0  0  0  0  0  0  0  0  0  0
   21.3302  -10.2955    0.0000 C    0  0  0  0  0  0  0  0  0  0  0  0
   22.3320   -9.4352    0.0000 C    0  0  0  0  0  0  0  0  0  0  0  0
   21.5697  -11.5995    0.0000 C    0  0  0  0  0  0  0  0  0  0  0  0
   23.5828   -9.8786    0.0000 C    0  0  0  0  0  0  0  0  0  0  0  0
   22.8201  -12.0428    0.0000 C    0  0  0  0  0  0  0  0  0  0  0  0
   23.8310  -11.1825    0.0000 C    0  0  0  0  0  0  0  0  0  0  0  0
   23.0595  -13.3555    0.0000 C    0  0  0  0  0  0  0  0  0  0  0  0
   21.6496  -19.3689    0.0000 C    0  0  0  0  0  0  0  0  0  0  0  0
   22.4919  -20.3803    0.0000 C    0  0  0  0  0  0  0  0  0  0  0  0
   22.0837  -18.1181    0.0000 C    0  0  0  0  0  0  0  0  0  0  0  0
   23.8046  -20.1496    0.0000 C    0  0  0  0  0  0  0  0  0  0  0  0
   23.3965  -17.8787    0.0000 C    0  0  0  0  0  0  0  0  0  0  0  0
   24.2568  -18.8988    0.0000 C    0  0  0  0  0  0  0  0  0  0  0  0
   21.2415  -17.0984    0.0000 C    0  0  0  0  0  0  0  0  0  0  0  0
   17.8001  -19.2094    0.0000 C    0  0  0  0  0  0  0  0  0  0  0  0
   18.8202  -18.3488    0.0000 C    0  0  0  0  0  0  0  0  0  0  0  0
   18.0395  -20.5222    0.0000 C    0  0  0  0  0  0  0  0  0  0  0  0
   20.0706  -18.8013    0.0000 C    0  0  0  0  0  0  0  0  0  0  0  0
   19.2903  -20.9655    0.0000 C    0  0  0  0  0  0  0  0  0  0  0  0
   20.3101  -20.1140    0.0000 C    0  0  0  0  0  0  0  0  0  0  0  0
   21.0908  -17.9410    0.0000 C    0  0  0  0  0  0  0  0  0  0  0  0
   18.5096  -15.2623    0.0000 C    0  0  0  0  0  0  0  0  0  0  0  0
   17.8444  -16.4152    0.0000 C    0  0  0  0  0  0  0  0  0  0  0  0
   17.8532  -14.1186    0.0000 C    0  0  0  0  0  0  0  0  0  0  0  0
   16.5141  -16.4064    0.0000 C    0  0  0  0  0  0  0  0  0  0  0  0
   16.5229  -14.1095    0.0000 C    0  0  0  0  0  0  0  0  0  0  0  0
   15.8485  -15.2535    0.0000 C    0  0  0  0  0  0  0  0  0  0  0  0
   19.8224  -15.5018    0.0000 C    0  0  0  0  0  0  0  0  0  0  0  0
   24.3723  -17.2934    0.0000 C    0  0  0  0  0  0  0  0  0  0  0  0
   24.8244  -16.0426    0.0000 C    0  0  0  0  0  0  0  0  0  0  0  0
   25.2325  -18.3136    0.0000 C    0  0  0  0  0  0  0  0  0  0  0  0
   26.1284  -15.8124    0.0000 C    0  0  0  0  0  0  0  0  0  0  0  0
   26.5365  -18.0741    0.0000 C    0  0  0  0  0  0  0  0  0  0  0  0
   26.9886  -16.8233    0.0000 C    0  0  0  0  0  0  0  0  0  0  0  0
   23.9641  -15.0409    0.0000 C    0  0  0  0  0  0  0  0  0  0  0  0
   21.0640  -13.7193    0.0000 Rh   0  0  0  0  0  0  0  0  0  0  0  0
   21.0552  -12.3889    0.0000 H    0  0  0  0  0  0  0  0  0  0  0  0
   19.9199  -14.3933    0.0000 H    0  0  0  0  0  0  0  0  0  0  0  0
   22.2081  -14.3845    0.0000 P    0  0  0  0  0  0  0  0  0  0  0  0
   21.0728  -15.0497    0.0000 P    0  0  0  0  0  0  0  0  0  0  0  0
   22.2081  -13.0541    0.0000 Cl   0  0  0  0  0  0  0  0  0  0  0  0
   19.9111  -13.0629    0.0000 C    0  0  0  0  0  0  0  0  0  0  0  0
   18.7579  -13.7369    0.0000 C    0  0  0  0  0  0  0  0  0  0  0  0
   19.9023  -11.7326    0.0000 C    0  0  0  0  0  0  0  0  0  0  0  0
   17.6050  -13.0717    0.0000 C    0  0  0  0  0  0  0  0  0  0  0  0
   18.7491  -11.0762    0.0000 C    0  0  0  0  0  0  0  0  0  0  0  0
   17.5962  -11.7414    0.0000 N    0  0  0  0  0  0  0  0  0  0  0  0
  1  2  1  0  0  0  0
  1  3  2  0  0  0  0
  2  4  2  0  0  0  0
  3  5  1  0  0  0  0
  4  6  1  0  0  0  0
  5  6  2  0  0  0  0
  3  7  1  0  0  0  0
  8  9  1  0  0  0  0
  8 10  2  0  0  0  0
  9 11  2  0  0  0  0
 10 12  1  0  0  0  0
 11 13  1  0  0  0  0
 12 13  2  0  0  0  0
 12 14  1  0  0  0  0
 15 16  1  0  0  0  0
 15 17  2  0  0  0  0
 16 18  2  0  0  0  0
 17 19  1  0  0  0  0
 18 20  1  0  0  0  0
 19 20  2  0  0  0  0
 17 21  1  0  0  0  0
 22 23  1  0  0  0  0
 22 24  2  0  0  0  0
 23 25  2  0  0  0  0
 24 26  1  0  0  0  0
 25 27  1  0  0  0  0
 26 27  2  0  0  0  0
 25 28  1  0  0  0  0
 29 30  1  0  0  0  0
 29 31  2  0  0  0  0
 30 32  2  0  0  0  0
 31 33  1  0  0  0  0
 32 34  1  0  0  0  0
 33 34  2  0  0  0  0
 29 35  1  0  0  0  0
 36 37  1  0  0  0  0
 36 38  2  0  0  0  0
 37 39  2  0  0  0  0
 38 40  1  0  0  0  0
 39 41  1  0  0  0  0
 40 41  2  0  0  0  0
 37 42  1  0  0  0  0
 43 44  1  0  0  0  0
 43 45  1  0  0  0  0
 43 46  1  0  0  0  0
 43 47  1  0  0  0  0
 43 48  1  0  0  0  0
 49 50  1  0  0  0  0
 49 51  2  0  0  0  0
 50 52  2  0  0  0  0
 51 53  1  0  0  0  0
 52 54  1  0  0  0  0
 53 54  2  0  0  0  0
 43 49  1  0  0  0  0
 42 47  1  0  0  0  0
 35 47  1  0  0  0  0
 28 47  1  0  0  0  0
 21 46  1  0  0  0  0
 14 46  1  0  0  0  0
  7 46  1  0  0  0  0
M  END
> <NMREDATA_VERSION>
1.1

> <NMREDATA_LEVEL>
0

> <NMREDATA_SOLVENT>
toluene-d8

> <NMREDATA_TEMPERATURE>
275

> <NMREDATA_FORMULA>
C47H50ClNP2Rh

> <NMREDATA_SMILES>
Cl[RhH2](P(Cc1ccccc1)(Cc1ccccc1)Cc1ccccc1)(P(Cc1ccccc1)(Cc1ccccc1)Cc1ccccc1)c1ccncc1

> <NMREDATA_ASSIGNMENT>
Rh43, 119.00, 43

> <NMREDATA_1D_103Rh>
119.00, L=Rh43

$$$$
