
  ACD/LABS03092411152D

 46 51  0  0  0  0  0  0  0  0  1 V2000
    9.7220   -7.9298    0.0000 Rh   0  0  0  0  0  0  0  0  0  0  0  0
   10.1787   -9.1819    0.0000 H    0  0  0  0  0  0  0  0  0  0  0  0
    9.2731   -6.6732    0.0000 C    0  0  0  0  0  0  0  0  0  0  0  0
    8.8209   -5.4287    0.0000 O    0  0  0  0  0  0  0  0  0  0  0  0
    8.4775   -8.3820    0.0000 C    0  0  0  0  0  0  0  0  0  0  0  0
    7.1640   -8.6077    0.0000 O    0  0  0  0  0  0  0  0  0  0  0  0
   13.2323   -7.8903    0.0000 C    0  0  0  0  0  0  0  0  0  0  0  0
   11.9959   -8.3379    0.0000 C    0  0  0  0  0  0  0  0  0  0  0  0
   13.4720   -6.5841    0.0000 C    0  0  0  0  0  0  0  0  0  0  0  0
   10.9790   -7.4806    0.0000 C    0  0  0  0  0  0  0  0  0  0  0  0
   12.4550   -5.7274    0.0000 C    0  0  0  0  0  0  0  0  0  0  0  0
   11.2141   -6.1673    0.0000 C    0  0  0  0  0  0  0  0  0  0  0  0
   14.2447   -8.7389    0.0000 C    0  0  0  0  0  0  0  0  0  0  0  0
   14.0178  -10.0479    0.0000 C    0  0  0  0  0  0  0  0  0  0  0  0
   15.5013   -8.2900    0.0000 C    0  0  0  0  0  0  0  0  0  0  0  0
   15.0270  -10.9096    0.0000 C    0  0  0  0  0  0  0  0  0  0  0  0
   16.5185   -9.1470    0.0000 C    0  0  0  0  0  0  0  0  0  0  0  0
   16.2836  -10.4607    0.0000 C    0  0  0  0  0  0  0  0  0  0  0  0
   11.4795  -11.1859    0.0000 C    0  0  0  0  0  0  0  0  0  0  0  0
   10.3226  -11.8437    0.0000 P    0  0  0  0  0  0  0  0  0  0  0  0
    6.8686  -11.1649    0.0000 C    0  0  0  0  0  0  0  0  0  0  0  0
    8.0132  -11.8352    0.0000 C    0  0  0  0  0  0  0  0  0  0  0  0
    6.8799   -9.8370    0.0000 C    0  0  0  0  0  0  0  0  0  0  0  0
    9.1701  -11.1774    0.0000 C    0  0  0  0  0  0  0  0  0  0  0  0
    8.0369   -9.1793    0.0000 C    0  0  0  0  0  0  0  0  0  0  0  0
    9.1817   -9.8499    0.0000 C    0  0  0  0  0  0  0  0  0  0  0  0
   10.2996  -15.8308    0.0000 C    0  0  0  0  0  0  0  0  0  0  0  0
   11.4562  -15.1732    0.0000 C    0  0  0  0  0  0  0  0  0  0  0  0
    9.1468  -15.1648    0.0000 C    0  0  0  0  0  0  0  0  0  0  0  0
   11.4602  -13.8495    0.0000 C    0  0  0  0  0  0  0  0  0  0  0  0
    9.1585  -13.8366    0.0000 C    0  0  0  0  0  0  0  0  0  0  0  0
   10.3110  -13.1712    0.0000 C    0  0  0  0  0  0  0  0  0  0  0  0
   15.7414   -6.9845    0.0000 C    0  0  0  0  0  0  0  0  0  0  0  0
   16.9857   -6.5320    0.0000 P    0  0  0  0  0  0  0  0  0  0  0  0
   20.0368   -9.1029    0.0000 C    0  0  0  0  0  0  0  0  0  0  0  0
   18.7847   -9.5595    0.0000 C    0  0  0  0  0  0  0  0  0  0  0  0
   20.2765   -7.7967    0.0000 C    0  0  0  0  0  0  0  0  0  0  0  0
   17.7674   -8.7025    0.0000 C    0  0  0  0  0  0  0  0  0  0  0  0
   19.2595   -6.9400    0.0000 C    0  0  0  0  0  0  0  0  0  0  0  0
   18.0027   -7.3886    0.0000 C    0  0  0  0  0  0  0  0  0  0  0  0
   18.7173   -3.4639    0.0000 C    0  0  0  0  0  0  0  0  0  0  0  0
   17.7001   -2.6069    0.0000 C    0  0  0  0  0  0  0  0  0  0  0  0
   18.4818   -4.7774    0.0000 C    0  0  0  0  0  0  0  0  0  0  0  0
   16.4479   -3.0635    0.0000 C    0  0  0  0  0  0  0  0  0  0  0  0
   17.2252   -5.2263    0.0000 C    0  0  0  0  0  0  0  0  0  0  0  0
   16.2082   -4.3697    0.0000 C    0  0  0  0  0  0  0  0  0  0  0  0
  1  2  1  0  0  0  0
  1  3  2  0  0  0  0
  3  4  2  0  0  0  0
  1  5  2  0  0  0  0
  5  6  2  0  0  0  0
  7  8  1  0  0  0  0
  7  9  2  0  0  0  0
  8 10  2  0  0  0  0
  9 11  1  0  0  0  0
 10 12  1  0  0  0  0
 11 12  2  0  0  0  0
 13 14  1  0  0  0  0
 13 15  2  0  0  0  0
 14 16  2  0  0  0  0
 15 17  1  0  0  0  0
 16 18  1  0  0  0  0
 17 18  2  0  0  0  0
  7 13  1  0  0  0  0
  8 19  1  0  0  0  0
 21 22  1  0  0  0  0
 21 23  2  0  0  0  0
 22 24  2  0  0  0  0
 23 25  1  0  0  0  0
 24 26  1  0  0  0  0
 25 26  2  0  0  0  0
 20 24  1  0  0  0  0
 27 28  1  0  0  0  0
 27 29  2  0  0  0  0
 28 30  2  0  0  0  0
 29 31  1  0  0  0  0
 30 32  1  0  0  0  0
 31 32  2  0  0  0  0
 20 32  1  0  0  0  0
 19 20  1  0  0  0  0
 15 33  1  0  0  0  0
 35 36  1  0  0  0  0
 35 37  2  0  0  0  0
 36 38  2  0  0  0  0
 37 39  1  0  0  0  0
 38 40  1  0  0  0  0
 39 40  2  0  0  0  0
 34 40  1  0  0  0  0
 41 42  1  0  0  0  0
 41 43  2  0  0  0  0
 42 44  2  0  0  0  0
 43 45  1  0  0  0  0
 44 46  1  0  0  0  0
 45 46  2  0  0  0  0
 34 45  1  0  0  0  0
 33 34  1  0  0  0  0
  1 10  1  0  0  0  0
M  END
> <NMREDATA_VERSION>
1.1

> <NMREDATA_LEVEL>
0

> <NMREDATA_SOLVENT>
C6D6

> <NMREDATA_TEMPERATURE>
298

> <NMREDATA_FORMULA>
C40H32O2P2Rh

> <NMREDATA_SMILES>
O=C=[RhH](=C=O)c1cccc(c1CP(c1ccccc1)c1ccccc1)c1ccccc1CP(c1ccccc1)c1ccccc1

> <NMREDATA_ASSIGNMENT>
Rh1, -898.00, 1

> <NMREDATA_1D_103Rh>
-898.00, L=Rh1

$$$$
