
  ACD/LABS02122411192D

 12 11  0  0  0  0  0  0  0  0  1 V2000
   19.9114   -6.2577    0.0000 Rh   0  0  0  0  0  0  0  0  0  0  0  0
   21.2414   -6.2577    0.0000 C    0  0  0  0  0  0  0  0  0  0  0  0
   21.9064   -5.1059    0.0000 C    0  0  0  0  0  0  0  0  0  0  0  0
   23.2364   -5.1059    0.0000 C    0  0  0  0  0  0  0  0  0  0  0  0
   23.9014   -6.2577    0.0000 C    0  0  0  0  0  0  0  0  0  0  0  0
   21.9064   -7.4095    0.0000 O    0  0  0  0  0  0  0  0  0  0  0  0
   23.9014   -3.9541    0.0000 O    0  0  0  0  0  0  0  0  0  0  0  0
   19.2464   -7.4095    0.0000 C    0  0  0  0  0  0  0  0  0  0  0  0
   17.9164   -7.4095    0.0000 C    0  0  0  0  0  0  0  0  0  0  0  0
   19.2464   -5.1059    0.0000 C    0  0  0  0  0  0  0  0  0  0  0  0
   19.9114   -3.9541    0.0000 C    0  0  0  0  0  0  0  0  0  0  0  0
   25.2314   -6.2577    0.0000 F    0  0  0  0  0  0  0  0  0  0  0  0
  1  2  1  0  0  0  0
  2  3  1  0  0  0  0
  3  4  1  0  0  0  0
  4  5  1  0  0  0  0
  2  6  2  0  0  0  0
  4  7  2  0  0  0  0
  8  9  1  0  0  0  0
  1  8  2  0  0  0  0
  1 10  2  0  0  0  0
 10 11  1  0  0  0  0
  5 12  1  0  0  0  0
M  END
> <NMREDATA_VERSION>
1.1

> <NMREDATA_LEVEL>
0

> <NMREDATA_SOLVENT>
DCCl3

> <NMREDATA_TEMPERATURE>
270

> <NMREDATA_FORMULA>
C8H12FO2Rh

> <NMREDATA_SMILES>
FCC(=O)CC(=O)/[Rh](=C/C)=C/C

> <NMREDATA_ASSIGNMENT>
Rh1, 1296.00, 1

> <NMREDATA_1D_103Rh>
1296.00, L=Rh1

$$$$
