
  ACD/LABS03282419262D

 24 25  0  0  0  0  0  0  0  0  1 V2000
   13.9893   -8.2582    0.0000 Rh   0  0  0  0  0  0  0  0  0  0  0  0
   15.1415   -8.9241    0.0000 Br   0  0  0  0  0  0  0  0  0  0  0  0
   13.9901   -6.9477    0.0000 Br   0  0  0  0  0  0  0  0  0  0  0  0
   13.9977   -9.5844    0.0000 Br   0  0  0  0  0  0  0  0  0  0  0  0
   15.1409   -7.5933    0.0000 P    0  0  0  0  0  0  0  0  0  0  0  0
   12.8378   -8.9230    0.0000 P    0  0  0  0  0  0  0  0  0  0  0  0
   12.9819   -7.4175    0.0000 C    0  0  0  0  0  0  0  0  0  0  0  0
   11.9575   -6.5652    0.0000 O    0  0  0  0  0  0  0  0  0  0  0  0
   13.3020  -10.1704    0.0000 C    0  0  0  0  0  0  0  0  0  0  0  0
   12.1775   -7.7792    0.0000 C    0  0  0  0  0  0  0  0  0  0  0  0
   14.6860   -6.3620    0.0000 C    0  0  0  0  0  0  0  0  0  0  0  0
   15.9891   -8.6191    0.0000 C    0  0  0  0  0  0  0  0  0  0  0  0
   16.2943   -6.9292    0.0000 C    0  0  0  0  0  0  0  0  0  0  0  0
   16.2959   -5.5982    0.0000 C    0  0  0  0  0  0  0  0  0  0  0  0
   17.4463   -7.5961    0.0000 C    0  0  0  0  0  0  0  0  0  0  0  0
   17.4495   -4.9341    0.0000 C    0  0  0  0  0  0  0  0  0  0  0  0
   18.5998   -6.9320    0.0000 C    0  0  0  0  0  0  0  0  0  0  0  0
   18.6014   -5.6010    0.0000 C    0  0  0  0  0  0  0  0  0  0  0  0
   11.6335   -9.4898    0.0000 C    0  0  0  0  0  0  0  0  0  0  0  0
   11.5223  -10.8162    0.0000 C    0  0  0  0  0  0  0  0  0  0  0  0
   10.5404   -8.7303    0.0000 C    0  0  0  0  0  0  0  0  0  0  0  0
   10.3179  -11.3830    0.0000 C    0  0  0  0  0  0  0  0  0  0  0  0
    9.3362   -9.2971    0.0000 C    0  0  0  0  0  0  0  0  0  0  0  0
    9.2249  -10.6234    0.0000 C    0  0  0  0  0  0  0  0  0  0  0  0
  1  2  1  0  0  0  0
  1  3  1  0  0  0  0
  1  4  1  0  0  0  0
  1  5  1  0  0  0  0
  1  6  1  0  0  0  0
  1  7  1  0  0  0  0
  7  8  3  0  0  0  0
  6  9  1  0  0  0  0
  6 10  1  0  0  0  0
  5 11  1  0  0  0  0
  5 12  1  0  0  0  0
 13 14  1  0  0  0  0
 13 15  2  0  0  0  0
 14 16  2  0  0  0  0
 15 17  1  0  0  0  0
 16 18  1  0  0  0  0
 17 18  2  0  0  0  0
  5 13  1  0  0  0  0
 19 20  1  0  0  0  0
 19 21  2  0  0  0  0
 20 22  2  0  0  0  0
 21 23  1  0  0  0  0
 22 24  1  0  0  0  0
 23 24  2  0  0  0  0
  6 19  1  0  0  0  0
M  END
> <NMREDATA_VERSION>
1.1

> <NMREDATA_LEVEL>
0

> <NMREDATA_SOLVENT>
C6D6

> <NMREDATA_TEMPERATURE>
297

> <NMREDATA_FORMULA>
C17H24Br3OP2Rh

> <NMREDATA_SMILES>
[O]#C[Rh](P(c1ccccc1)(C)C)(P(c1ccccc1)(C)C)(Br)(Br)Br

> <NMREDATA_ASSIGNMENT>
Rh1, 1075.00, 1

> <NMREDATA_1D_103Rh>
1075.00, L=Rh1

$$$$
