
  ACD/LABS03292412323D

 54 61  0  0  0  0  0  0  0  0  1 V2000
   12.2211   -9.6305    0.0000 C    0  0  0  0  0  0  0  0  0  0  0  0
   11.0694   -8.9647    0.0000 O    0  0  0  0  0  0  0  0  0  0  0  0
   12.2164  -12.5294    0.0000 O    0  0  0  0  0  0  0  0  0  0  0  0
    8.8631  -19.1115    0.0000 C    0  0  0  0  0  0  0  0  0  0  0  0
    9.8871  -19.9632    0.0000 C    0  0  0  0  0  0  0  0  0  0  0  0
    9.0904  -17.8033    0.0000 C    0  0  0  0  0  0  0  0  0  0  0  0
   11.1385  -19.5071    0.0000 C    0  0  0  0  0  0  0  0  0  0  0  0
   10.3418  -17.3471    0.0000 C    0  0  0  0  0  0  0  0  0  0  0  0
   11.3657  -18.1988    0.0000 C    0  0  0  0  0  0  0  0  0  0  0  0
   12.7333  -15.2497    0.0000 C    0  0  0  0  0  0  0  0  0  0  0  0
   14.0334  -15.4816    0.0000 C    0  0  0  0  0  0  0  0  0  0  0  0
   11.8771  -16.2658    0.0000 C    0  0  0  0  0  0  0  0  0  0  0  0
   14.4974  -16.7285    0.0000 C    0  0  0  0  0  0  0  0  0  0  0  0
   12.3411  -17.5127    0.0000 C    0  0  0  0  0  0  0  0  0  0  0  0
   13.6493  -17.7400    0.0000 C    0  0  0  0  0  0  0  0  0  0  0  0
    8.4093  -16.8359    0.0000 C    0  0  0  0  0  0  0  0  0  0  0  0
    7.1011  -16.6086    0.0000 C    0  0  0  0  0  0  0  0  0  0  0  0
    9.2653  -15.8194    0.0000 C    0  0  0  0  0  0  0  0  0  0  0  0
    6.6446  -15.3574    0.0000 C    0  0  0  0  0  0  0  0  0  0  0  0
    8.8090  -14.5685    0.0000 C    0  0  0  0  0  0  0  0  0  0  0  0
    7.5008  -14.3413    0.0000 C    0  0  0  0  0  0  0  0  0  0  0  0
   16.0786  -16.0815    0.0000 C    0  0  0  0  0  0  0  0  0  0  0  0
   17.2299  -15.4168    0.0000 C    0  0  0  0  0  0  0  0  0  0  0  0
   16.0793  -17.4119    0.0000 C    0  0  0  0  0  0  0  0  0  0  0  0
   18.3820  -16.0824    0.0000 C    0  0  0  0  0  0  0  0  0  0  0  0
   17.2308  -18.0773    0.0000 C    0  0  0  0  0  0  0  0  0  0  0  0
   18.3822  -17.4126    0.0000 C    0  0  0  0  0  0  0  0  0  0  0  0
   16.9271  -14.2713    0.0000 C    0  0  0  0  0  0  0  0  0  0  0  0
   15.5968  -14.2720    0.0000 C    0  0  0  0  0  0  0  0  0  0  0  0
   17.5926  -13.1197    0.0000 C    0  0  0  0  0  0  0  0  0  0  0  0
   14.9368  -13.1288    0.0000 C    0  0  0  0  0  0  0  0  0  0  0  0
   16.9325  -11.9765    0.0000 C    0  0  0  0  0  0  0  0  0  0  0  0
   15.6023  -11.9767    0.0000 C    0  0  0  0  0  0  0  0  0  0  0  0
   12.9403  -20.0222    0.0000 C    0  0  0  0  0  0  0  0  0  0  0  0
   13.1721  -18.7218    0.0000 C    0  0  0  0  0  0  0  0  0  0  0  0
   13.9490  -20.8828    0.0000 C    0  0  0  0  0  0  0  0  0  0  0  0
   14.4233  -18.2653    0.0000 C    0  0  0  0  0  0  0  0  0  0  0  0
   15.2049  -20.4344    0.0000 C    0  0  0  0  0  0  0  0  0  0  0  0
   15.4318  -19.1264    0.0000 C    0  0  0  0  0  0  0  0  0  0  0  0
   11.0731  -13.1895    0.0000 Rh   0  0  0  0  0  0  0  0  0  0  0  0
    9.9218  -13.8542    0.0000 H    0  0  0  0  0  0  0  0  0  0  0  0
   11.0726  -11.8595    0.0000 H    0  0  0  0  0  0  0  0  0  0  0  0
   10.5736  -16.0467    0.0000 P    0  0  0  0  0  0  0  0  0  0  0  0
   14.9313  -15.4235    0.0000 P    0  0  0  0  0  0  0  0  0  0  0  0
   13.3725   -8.9657    0.0000 C    0  0  0  0  0  0  0  0  0  0  0  0
   14.5243   -9.6310    0.0000 N    0  0  0  0  0  0  0  0  0  0  0  0
   13.3721   -7.6352    0.0000 C    0  0  0  0  0  0  0  0  0  0  0  0
   15.6757   -8.9663    0.0000 C    0  0  0  0  0  0  0  0  0  0  0  0
   14.5234   -6.9705    0.0000 C    0  0  0  0  0  0  0  0  0  0  0  0
   15.6752   -7.6363    0.0000 C    0  0  0  0  0  0  0  0  0  0  0  0
   16.8277   -9.6307    0.0000 C    0  0  0  0  0  0  0  0  0  0  0  0
   17.9792   -8.9652    0.0000 C    0  0  0  0  0  0  0  0  0  0  0  0
   16.8266   -6.9709    0.0000 C    0  0  0  0  0  0  0  0  0  0  0  0
   17.9786   -7.6353    0.0000 C    0  0  0  0  0  0  0  0  0  0  0  0
  1  2  2  0  0  0  0
  1  3  1  0  0  0  0
  4  5  1  0  0  0  0
  4  6  2  0  0  0  0
  5  7  2  0  0  0  0
  6  8  1  0  0  0  0
  7  9  1  0  0  0  0
  8  9  2  0  0  0  0
 10 11  1  0  0  0  0
 10 12  2  0  0  0  0
 11 13  2  0  0  0  0
 12 14  1  0  0  0  0
 13 15  1  0  0  0  0
 14 15  2  0  0  0  0
 16 17  1  0  0  0  0
 16 18  2  0  0  0  0
 17 19  2  0  0  0  0
 18 20  1  0  0  0  0
 19 21  1  0  0  0  0
 20 21  2  0  0  0  0
 22 23  1  0  0  0  0
 22 24  2  0  0  0  0
 23 25  2  0  0  0  0
 24 26  1  0  0  0  0
 25 27  1  0  0  0  0
 26 27  2  0  0  0  0
 28 29  1  0  0  0  0
 28 30  2  0  0  0  0
 29 31  2  0  0  0  0
 30 32  1  0  0  0  0
 31 33  1  0  0  0  0
 32 33  2  0  0  0  0
 34 35  1  0  0  0  0
 34 36  2  0  0  0  0
 35 37  2  0  0  0  0
 36 38  1  0  0  0  0
 37 39  1  0  0  0  0
 38 39  2  0  0  0  0
 40 41  1  0  0  0  0
 40 42  1  0  0  0  0
 40 43  1  0  0  0  0
 40 44  1  0  0  0  0
 37 44  1  0  0  0  0
 29 44  1  0  0  0  0
 22 44  1  0  0  0  0
 18 43  1  0  0  0  0
 12 43  1  0  0  0  0
  8 43  1  0  0  0  0
  3 40  1  0  0  0  0
 45 46  1  0  0  0  0
 45 47  2  0  0  0  0
 46 48  2  0  0  0  0
 47 49  1  0  0  0  0
 49 50  2  0  0  0  0
  1 45  1  0  0  0  0
 48 51  1  0  0  0  0
 48 50  1  0  0  0  0
 51 52  2  0  0  0  0
 50 53  1  0  0  0  0
 52 54  1  0  0  0  0
 53 54  2  0  0  0  0
M  END
> <NMREDATA_VERSION>
1.1

> <NMREDATA_LEVEL>
0

> <NMREDATA_SOLVENT>
DCCl3

> <NMREDATA_TEMPERATURE>
300

> <NMREDATA_FORMULA>
C46H40NO2P2Rh

> <NMREDATA_SMILES>
O=C(c1ccc2c(n1)cccc2)O[RhH2](P(c1ccccc1)(c1ccccc1)c1ccccc1)P(c1ccccc1)(c1ccccc1)c1ccccc1

> <NMREDATA_ASSIGNMENT>
Rh40, 453.00, 40

> <NMREDATA_1D_103Rh>
453.00, L=Rh40

$$$$
