
  ACD/LABS04012414442D

 62 70  0  0  0  0  0  0  0  0  2 V2000
   15.4845  -13.5551    0.0000 B    0  0  0  0  0  0  0  0  0  0  0  0
   16.7878  -13.3243    0.0000 N    0  0  0  0  0  0  0  0  0  0  0  0
   17.5584  -14.4060    0.0000 C    0  0  0  0  0  0  0  0  0  0  0  0
   17.5584  -12.2519    0.0000 N    0  0  0  0  0  0  0  0  0  0  0  0
   18.8262  -13.9896    0.0000 C    0  0  0  0  0  0  0  0  0  0  0  0
   18.8262  -12.6596    0.0000 C    0  0  0  0  0  0  0  0  0  0  0  0
   14.1725  -13.7855    0.0000 N    0  0  0  0  0  0  0  0  0  0  0  0
   13.5875  -14.9823    0.0000 C    0  0  0  0  0  0  0  0  0  0  0  0
   13.2153  -12.8637    0.0000 N    0  0  0  0  0  0  0  0  0  0  0  0
   12.2667  -14.7962    0.0000 C    0  0  0  0  0  0  0  0  0  0  0  0
   12.0452  -13.4842    0.0000 C    0  0  0  0  0  0  0  0  0  0  0  0
   15.7061  -14.8671    0.0000 N    0  0  0  0  0  0  0  0  0  0  0  0
   16.9029  -15.4522    0.0000 C    0  0  0  0  0  0  0  0  0  0  0  0
   14.7843  -15.8244    0.0000 N    0  0  0  0  0  0  0  0  0  0  0  0
   16.7168  -16.7729    0.0000 C    0  0  0  0  0  0  0  0  0  0  0  0
   15.4048  -16.9945    0.0000 C    0  0  0  0  0  0  0  0  0  0  0  0
   10.8483  -12.8991    0.0000 C    0  0  0  0  0  0  0  0  0  0  0  0
   11.3445  -15.7447    0.0000 C    0  0  0  0  0  0  0  0  0  0  0  0
   14.8198  -18.1913    0.0000 C    0  0  0  0  0  0  0  0  0  0  0  0
   17.6649  -17.6952    0.0000 C    0  0  0  0  0  0  0  0  0  0  0  0
   19.8991  -11.8797    0.0000 C    0  0  0  0  0  0  0  0  0  0  0  0
   19.8991  -14.7782    0.0000 C    0  0  0  0  0  0  0  0  0  0  0  0
   15.3426   -8.3869    0.0000 C    0  0  0  0  0  0  0  0  0  0  0  0
   14.1905   -7.7134    0.0000 C    0  0  0  0  0  0  0  0  0  0  0  0
   16.4952   -7.7309    0.0000 C    0  0  0  0  0  0  0  0  0  0  0  0
   14.1993   -6.3834    0.0000 C    0  0  0  0  0  0  0  0  0  0  0  0
   16.5040   -6.4014    0.0000 C    0  0  0  0  0  0  0  0  0  0  0  0
   15.3519   -5.7274    0.0000 C    0  0  0  0  0  0  0  0  0  0  0  0
   23.4007  -13.9448    0.0000 C    0  0  0  0  0  0  0  0  0  0  0  0
   22.5406  -14.9643    0.0000 C    0  0  0  0  0  0  0  0  0  0  0  0
   22.9488  -12.6951    0.0000 C    0  0  0  0  0  0  0  0  0  0  0  0
   21.2286  -14.7252    0.0000 C    0  0  0  0  0  0  0  0  0  0  0  0
   21.6368  -12.4555    0.0000 C    0  0  0  0  0  0  0  0  0  0  0  0
   20.7855  -13.4750    0.0000 C    0  0  0  0  0  0  0  0  0  0  0  0
   15.2542  -12.2519    0.0000 Rh   0  5  0  0  0  0  0  0  0  0  0  0
   21.1931  -11.2149    0.0000 Sn   0  0  0  0  0  4  0  0  0  0  0  0
   19.4822   -8.1390    0.0000 C    0  0  0  0  0  0  0  0  0  0  0  0
   19.7130   -9.4510    0.0000 C    0  0  0  0  0  0  0  0  0  0  0  0
   20.5017   -7.2877    0.0000 C    0  0  0  0  0  0  0  0  0  0  0  0
   20.9628   -9.9117    0.0000 C    0  0  0  0  0  0  0  0  0  0  0  0
   21.7520   -7.7488    0.0000 C    0  0  0  0  0  0  0  0  0  0  0  0
   21.9823   -9.0521    0.0000 C    0  0  0  0  0  0  0  0  0  0  0  0
   25.1209  -10.5322    0.0000 C    0  0  0  0  0  0  0  0  0  0  0  0
   24.2695   -9.5127    0.0000 C    0  0  0  0  0  0  0  0  0  0  0  0
   24.6597  -11.7733    0.0000 C    0  0  0  0  0  0  0  0  0  0  0  0
   22.9575   -9.7436    0.0000 C    0  0  0  0  0  0  0  0  0  0  0  0
   23.3565  -12.0036    0.0000 C    0  0  0  0  0  0  0  0  0  0  0  0
   22.4964  -10.9933    0.0000 C    0  0  0  0  0  0  0  0  0  0  0  0
   13.0379   -8.3781    0.0000 P    0  0  0  0  0  0  0  0  0  0  0  0
   12.3819   -7.2168    0.0000 C    0  0  0  0  0  0  0  0  0  0  0  0
   11.0519   -7.2168    0.0000 C    0  0  0  0  0  0  0  0  0  0  0  0
   13.0466   -6.0734    0.0000 C    0  0  0  0  0  0  0  0  0  0  0  0
   10.3872   -6.0554    0.0000 C    0  0  0  0  0  0  0  0  0  0  0  0
   12.3906   -4.9208    0.0000 C    0  0  0  0  0  0  0  0  0  0  0  0
   11.0607   -4.9120    0.0000 C    0  0  0  0  0  0  0  0  0  0  0  0
   11.8853   -9.0341    0.0000 C    0  0  0  0  0  0  0  0  0  0  0  0
   11.8765  -10.3641    0.0000 C    0  0  0  0  0  0  0  0  0  0  0  0
   10.7327   -8.3606    0.0000 C    0  0  0  0  0  0  0  0  0  0  0  0
   10.7239  -11.0201    0.0000 C    0  0  0  0  0  0  0  0  0  0  0  0
    9.5806   -9.0254    0.0000 C    0  0  0  0  0  0  0  0  0  0  0  0
    9.5713  -10.3553    0.0000 C    0  0  0  0  0  0  0  0  0  0  0  0
   13.9422  -12.4735    0.0000 H    0  0  0  0  0  0  0  0  0  0  0  0
  2  3  1  0  0  0  0
  2  4  1  0  0  0  0
  3  5  2  0  0  0  0
  4  6  2  0  0  0  0
  5  6  1  0  0  0  0
  1  2  1  0  0  0  0
  7  8  1  0  0  0  0
  7  9  1  0  0  0  0
  8 10  2  0  0  0  0
  9 11  2  0  0  0  0
 10 11  1  0  0  0  0
  1  7  1  0  0  0  0
 12 13  1  0  0  0  0
 12 14  1  0  0  0  0
 13 15  2  0  0  0  0
 14 16  2  0  0  0  0
 15 16  1  0  0  0  0
  1 12  1  0  0  0  0
 11 17  1  0  0  0  0
 10 18  1  0  0  0  0
 16 19  1  0  0  0  0
 15 20  1  0  0  0  0
  6 21  1  0  0  0  0
  5 22  1  0  0  0  0
 23 24  1  0  0  0  0
 23 25  2  0  0  0  0
 24 26  2  0  0  0  0
 25 27  1  0  0  0  0
 26 28  1  0  0  0  0
 27 28  2  0  0  0  0
 29 30  1  0  0  0  0
 29 31  2  0  0  0  0
 30 32  2  0  0  0  0
 31 33  1  0  0  0  0
 32 34  1  0  0  0  0
 33 34  2  0  0  0  0
 35 36  1  0  0  0  0
 37 38  1  0  0  0  0
 37 39  2  0  0  0  0
 38 40  2  0  0  0  0
 39 41  1  0  0  0  0
 40 42  1  0  0  0  0
 41 42  2  0  0  0  0
 36 40  1  0  0  0  0
 43 44  1  0  0  0  0
 43 45  2  0  0  0  0
 44 46  2  0  0  0  0
 45 47  1  0  0  0  0
 46 48  1  0  0  0  0
 47 48  2  0  0  0  0
 36 48  1  0  0  0  0
 33 36  1  0  0  0  0
 35 49  1  0  0  0  0
 50 51  1  0  0  0  0
 50 52  2  0  0  0  0
 51 53  2  0  0  0  0
 52 54  1  0  0  0  0
 53 55  1  0  0  0  0
 54 55  2  0  0  0  0
 49 50  1  0  0  0  0
 56 57  1  0  0  0  0
 56 58  2  0  0  0  0
 57 59  2  0  0  0  0
 58 60  1  0  0  0  0
 59 61  1  0  0  0  0
 60 61  2  0  0  0  0
 49 56  1  0  0  0  0
 24 49  1  0  0  0  0
 35 62  1  0  0  0  0
  1 35  1  0  0  0  0
M  END
> <NMREDATA_VERSION>
1.1

> <NMREDATA_LEVEL>
0

> <NMREDATA_SOLVENT>
CD2Cl2

> <NMREDATA_TEMPERATURE>
300

> <NMREDATA_FORMULA>
C51H53BN6PRhSn

> <NMREDATA_SMILES>
Cc1nn(cc1C)[B]([RhH]([Sn](c1ccccc1)(c1ccccc1)c1ccccc1)P(c1ccccc1)(c1ccccc1)c1ccccc1)(n1nc(c(c1)C)C)n1nc(c(c1)C)C

> <NMREDATA_ASSIGNMENT>
Rh35, 1302.00, 35

> <NMREDATA_1D_103Rh>
1302.00, L=Rh35

$$$$
