
  ACD/LABS04032410442D

 35 36  0  0  0  0  0  0  0  0  2 V2000
   24.6050  -16.0642    0.0000 B    0  5  0  0  0  0  0  0  0  0  0  0
   24.6050  -15.0707    0.0000 F    0  0  0  0  0  0  0  0  0  0  0  0
   25.5985  -16.0642    0.0000 F    0  0  0  0  0  0  0  0  0  0  0  0
   23.6115  -16.0642    0.0000 F    0  0  0  0  0  0  0  0  0  0  0  0
   24.6050  -17.0577    0.0000 F    0  0  0  0  0  0  0  0  0  0  0  0
   16.6593  -15.7318    0.0000 C    0  0  0  0  0  0  0  0  0  0  0  0
   17.4757  -14.6757    0.0000 C    0  0  0  0  0  0  0  0  0  0  0  0
   15.3368  -15.5453    0.0000 C    0  0  0  0  0  0  0  0  0  0  0  0
   16.9697  -13.4422    0.0000 C    0  0  0  0  0  0  0  0  0  0  0  0
   14.8398  -14.3208    0.0000 C    0  0  0  0  0  0  0  0  0  0  0  0
   15.6475  -13.2646    0.0000 C    0  0  0  0  0  0  0  0  0  0  0  0
   13.5174  -14.1342    0.0000 As   0  0  0  0  0  0  0  0  0  0  0  0
   12.7103  -15.1904    0.0000 C    0  0  0  0  0  0  0  0  0  0  0  0
   13.0210  -12.9007    0.0000 C    0  0  0  0  0  0  0  0  0  0  0  0
   14.3960  -20.5858    0.0000 C    0  0  0  0  0  0  0  0  0  0  0  0
   13.2692  -19.8848    0.0000 C    0  0  0  0  0  0  0  0  0  0  0  0
   15.5676  -19.9557    0.0000 C    0  0  0  0  0  0  0  0  0  0  0  0
   13.3047  -18.5537    0.0000 C    0  0  0  0  0  0  0  0  0  0  0  0
   15.6121  -18.6246    0.0000 C    0  0  0  0  0  0  0  0  0  0  0  0
   14.4850  -17.9236    0.0000 C    0  0  0  0  0  0  0  0  0  0  0  0
   16.7834  -17.9945    0.0000 As   0  0  0  0  0  0  0  0  0  0  0  0
   16.8278  -16.6724    0.0000 C    0  0  0  0  0  0  0  0  0  0  0  0
   17.9195  -18.6955    0.0000 C    0  0  0  0  0  0  0  0  0  0  0  0
   11.8849  -18.7222    0.0000 C    0  0  0  0  0  0  0  0  0  0  0  0
   10.8110  -19.5032    0.0000 C    0  0  0  0  0  0  0  0  0  0  0  0
   11.7431  -17.3998    0.0000 C    0  0  0  0  0  0  0  0  0  0  0  0
    9.5952  -18.9617    0.0000 C    0  0  0  0  0  0  0  0  0  0  0  0
   10.5270  -16.8584    0.0000 C    0  0  0  0  0  0  0  0  0  0  0  0
    9.4534  -17.6393    0.0000 C    0  0  0  0  0  0  0  0  0  0  0  0
    9.9504  -15.6696    0.0000 As   0  0  0  0  0  0  0  0  0  0  0  0
    8.6190  -15.5720    0.0000 C    0  0  0  0  0  0  0  0  0  0  0  0
   11.0240  -14.8887    0.0000 C    0  0  0  0  0  0  0  0  0  0  0  0
   14.5204  -16.6014    0.0000 Rh   0  0  0  0  0  0  0  0  0  0  0  0
   13.7749  -15.5011    0.0000 Cl   0  0  0  0  0  0  0  0  0  0  0  0
   15.7716  -17.0450    0.0000 Cl   0  0  0  0  0  0  0  0  0  0  0  0
  1  2  1  0  0  0  0
  1  3  1  0  0  0  0
  1  4  1  0  0  0  0
  1  5  1  0  0  0  0
  6  7  1  0  0  0  0
  6  8  2  0  0  0  0
  7  9  2  0  0  0  0
  8 10  1  0  0  0  0
  9 11  1  0  0  0  0
 10 11  2  0  0  0  0
 10 12  1  0  0  0  0
 12 13  1  0  0  0  0
 12 14  1  0  0  0  0
 15 16  1  0  0  0  0
 15 17  2  0  0  0  0
 16 18  2  0  0  0  0
 17 19  1  0  0  0  0
 18 20  1  0  0  0  0
 19 20  2  0  0  0  0
 19 21  1  0  0  0  0
 21 22  1  0  0  0  0
 21 23  1  0  0  0  0
 24 25  1  0  0  0  0
 24 26  2  0  0  0  0
 25 27  2  0  0  0  0
 26 28  1  0  0  0  0
 27 29  1  0  0  0  0
 28 29  2  0  0  0  0
 28 30  1  0  0  0  0
 30 31  1  0  0  0  0
 30 32  1  0  0  0  0
 33 34  1  0  0  0  0
 33 35  1  0  0  0  0
 26 33  1  0  0  0  0
 20 33  1  0  0  0  0
  8 33  1  0  0  0  0
M  END
> <NMREDATA_VERSION>
1.1

> <NMREDATA_LEVEL>
0

> <NMREDATA_SOLVENT>
CD2Cl2

> <NMREDATA_TEMPERATURE>
300

> <NMREDATA_FORMULA>
C24H30As3BCl2F4Rh

> <NMREDATA_SMILES>
F[B](F)(F)F.C[As](c1ccccc1[Rh](c1ccccc1[As](C)C)(c1ccccc1[As](C)C)(Cl)Cl)C

> <NMREDATA_ASSIGNMENT>
Rh33, 1750.00, 33

> <NMREDATA_1D_103Rh>
1750.00, L=Rh33

$$$$
