
  ACD/LABS03242412422D

 27 29  0  0  0  0  0  0  0  0  1 V2000
   13.8817   -9.0304    0.0000 Rh   0  0  0  0  0  0  0  0  0  0  0  0
   12.0082   -7.9487    0.0000 Cl   0  0  0  0  0  0  0  0  0  0  0  0
   15.7551  -10.1120    0.0000 Cl   0  0  0  0  0  0  0  0  0  0  0  0
   14.9633   -7.1569    0.0000 C    0  0  0  0  0  0  0  0  0  0  0  0
   13.8817   -5.2835    0.0000 Cl   0  0  0  0  0  0  0  0  0  0  0  0
   12.8000  -10.9038    0.0000 N    0  0  0  0  0  0  0  0  0  0  0  0
   13.8817  -12.7772    0.0000 C    0  0  0  0  0  0  0  0  0  0  0  0
   10.6368  -10.9038    0.0000 C    0  0  0  0  0  0  0  0  0  0  0  0
   12.8000  -14.6507    0.0000 C    0  0  0  0  0  0  0  0  0  0  0  0
    9.5551  -12.7772    0.0000 C    0  0  0  0  0  0  0  0  0  0  0  0
   10.6368  -14.6507    0.0000 C    0  0  0  0  0  0  0  0  0  0  0  0
   16.0449  -12.7772    0.0000 C    0  0  0  0  0  0  0  0  0  0  0  0
    9.5551   -9.0304    0.0000 C    0  0  0  0  0  0  0  0  0  0  0  0
   17.1265  -10.9038    0.0000 N    0  0  0  0  0  0  0  0  0  0  0  0
   10.6368   -7.1569    0.0000 N    0  0  0  0  0  0  0  0  0  0  0  0
   19.2898  -10.9038    0.0000 C    0  0  0  0  0  0  0  0  0  0  0  0
   20.3714   -9.0304    0.0000 C    0  0  0  0  0  0  0  0  0  0  0  0
   20.3715  -12.7773    0.0000 C    0  0  0  0  0  0  0  0  0  0  0  0
   22.5348   -9.0305    0.0000 C    0  0  0  0  0  0  0  0  0  0  0  0
   22.5347  -12.7773    0.0000 C    0  0  0  0  0  0  0  0  0  0  0  0
   23.6164  -10.9039    0.0000 C    0  0  0  0  0  0  0  0  0  0  0  0
    9.5551   -5.2835    0.0000 C    0  0  0  0  0  0  0  0  0  0  0  0
    7.3919   -5.2835    0.0000 C    0  0  0  0  0  0  0  0  0  0  0  0
   10.6368   -3.4099    0.0000 C    0  0  0  0  0  0  0  0  0  0  0  0
    6.3103   -3.4099    0.0000 C    0  0  0  0  0  0  0  0  0  0  0  0
    9.5552   -1.5365    0.0000 C    0  0  0  0  0  0  0  0  0  0  0  0
    7.3920   -1.5365    0.0000 C    0  0  0  0  0  0  0  0  0  0  0  0
  1  2  1  0  0  0  0
  1  3  1  0  0  0  0
  1  4  1  0  0  0  0
  4  5  1  0  0  0  0
  6  7  1  0  0  0  0
  6  8  2  0  0  0  0
  7  9  2  0  0  0  0
  8 10  1  0  0  0  0
  9 11  1  0  0  0  0
 10 11  2  0  0  0  0
  1  6  1  0  0  0  0
  7 12  1  0  0  0  0
  8 13  1  0  0  0  0
 12 14  2  0  0  0  0
 13 15  2  0  0  0  0
 16 17  1  0  0  0  0
 16 18  1  0  0  0  0
 17 19  1  0  0  0  0
 18 20  1  0  0  0  0
 19 21  1  0  0  0  0
 20 21  1  0  0  0  0
 14 16  1  0  0  0  0
 22 23  1  0  0  0  0
 22 24  1  0  0  0  0
 23 25  1  0  0  0  0
 24 26  1  0  0  0  0
 25 27  1  0  0  0  0
 26 27  1  0  0  0  0
 15 22  1  0  0  0  0
M  END
> <NMREDATA_VERSION>
1.1

> <NMREDATA_LEVEL>
0

> <NMREDATA_SOLVENT>
CD2Cl2

> <NMREDATA_TEMPERATURE>
298

> <NMREDATA_FORMULA>
C20H30Cl3N3Rh

> <NMREDATA_SMILES>
ClC[Rh](N1=C(C=CC=C1/C=N/C1CCCCC1)/C=N/C1CCCCC1)(Cl)Cl

> <NMREDATA_ASSIGNMENT>
Rh1, 3569.00, 1

> <NMREDATA_1D_103Rh>
3569.00, L=Rh1

$$$$
