
  ACD/LABS03132411232D

 52 54  0  0  0  0  0  0  0  0  2 V2000
   16.2732  -14.0659    0.0000 Rh   0  3  0  0  0  0  0  0  0  0  0  0
   12.6218  -11.4765    0.0000 C    0  0  0  0  0  0  0  0  0  0  0  0
   12.3939  -10.1659    0.0000 C    0  0  0  0  0  0  0  0  0  0  0  0
   13.8709  -11.9412    0.0000 C    0  0  0  0  0  0  0  0  0  0  0  0
   13.4276   -9.3173    0.0000 C    0  0  0  0  0  0  0  0  0  0  0  0
   14.8920  -11.0954    0.0000 C    0  0  0  0  0  0  0  0  0  0  0  0
   14.6688   -9.7775    0.0000 C    0  0  0  0  0  0  0  0  0  0  0  0
   14.6516  -15.4367    0.0000 C    0  0  0  0  0  0  0  0  0  0  0  0
   14.4099  -16.7426    0.0000 C    0  0  0  0  0  0  0  0  0  0  0  0
   13.6291  -14.5795    0.0000 C    0  0  0  0  0  0  0  0  0  0  0  0
   13.1613  -17.2007    0.0000 C    0  0  0  0  0  0  0  0  0  0  0  0
   12.3770  -15.0256    0.0000 C    0  0  0  0  0  0  0  0  0  0  0  0
   12.1432  -16.3360    0.0000 C    0  0  0  0  0  0  0  0  0  0  0  0
   15.1906  -13.2774    0.0000 P    0  0  0  0  0  0  0  0  0  0  0  0
   13.8625  -13.2689    0.0000 C    0  0  0  0  0  0  0  0  0  0  0  0
   12.5347  -13.2609    0.0000 P    0  0  0  0  0  0  0  0  0  0  0  0
   11.6775  -14.2834    0.0000 O    0  0  0  0  0  0  0  0  0  0  0  0
   14.7854  -12.0079    0.0000 O    0  0  0  0  0  0  0  0  0  0  0  0
   16.2712  -12.5069    0.0000 O    0  0  0  0  0  0  0  0  0  0  0  0
   14.7810  -14.5373    0.0000 O    0  0  0  0  0  0  0  0  0  0  0  0
   11.8802  -12.1039    0.0000 O    0  0  0  0  0  0  0  0  0  0  0  0
   11.2064  -13.2527    0.0000 O    0  0  0  0  0  0  0  0  0  0  0  0
   16.1435  -11.1827    0.0000 C    0  0  0  0  0  0  0  0  0  0  0  0
   15.6643  -15.5291    0.0000 C    0  0  0  0  0  0  0  0  0  0  0  0
   10.5487  -12.0833    0.0000 C    0  0  0  0  0  0  0  0  0  0  0  0
   10.5330  -14.4018    0.0000 C    0  0  0  0  0  0  0  0  0  0  0  0
   22.2425  -14.8064    0.0000 C    0  0  0  0  0  0  0  0  0  0  0  0
   23.1337  -13.8135    0.0000 C    0  0  0  0  0  0  0  0  0  0  0  0
   20.9390  -14.5251    0.0000 C    0  0  0  0  0  0  0  0  0  0  0  0
   22.7165  -12.5476    0.0000 C    0  0  0  0  0  0  0  0  0  0  0  0
   20.5294  -13.2635    0.0000 C    0  0  0  0  0  0  0  0  0  0  0  0
   21.4203  -12.2710    0.0000 C    0  0  0  0  0  0  0  0  0  0  0  0
   20.7641  -17.7048    0.0000 C    0  0  0  0  0  0  0  0  0  0  0  0
   21.7568  -18.5953    0.0000 C    0  0  0  0  0  0  0  0  0  0  0  0
   21.0404  -16.4089    0.0000 C    0  0  0  0  0  0  0  0  0  0  0  0
   23.0188  -18.1859    0.0000 C    0  0  0  0  0  0  0  0  0  0  0  0
   22.3024  -15.9995    0.0000 C    0  0  0  0  0  0  0  0  0  0  0  0
   23.2949  -16.8904    0.0000 C    0  0  0  0  0  0  0  0  0  0  0  0
   17.5867  -13.9741    0.0000 P    0  0  0  0  0  0  0  0  0  0  0  0
   20.0479  -15.5180    0.0000 C    0  0  0  0  0  0  0  0  0  0  0  0
   19.1616  -16.5027    0.0000 P    0  0  0  0  0  0  0  0  0  0  0  0
   18.5280  -15.3267    0.0000 O    0  0  0  0  0  0  0  0  0  0  0  0
   17.0960  -12.7472    0.0000 O    0  0  0  0  0  0  0  0  0  0  0  0
   18.6127  -13.1206    0.0000 O    0  0  0  0  0  0  0  0  0  0  0  0
   17.2674  -15.2551    0.0000 O    0  0  0  0  0  0  0  0  0  0  0  0
   19.7874  -17.6737    0.0000 O    0  0  0  0  0  0  0  0  0  0  0  0
   17.9902  -17.1283    0.0000 O    0  0  0  0  0  0  0  0  0  0  0  0
   18.3856  -11.8104    0.0000 C    0  0  0  0  0  0  0  0  0  0  0  0
   18.2258  -16.1878    0.0000 C    0  0  0  0  0  0  0  0  0  0  0  0
   19.0833  -18.8050    0.0000 C    0  0  0  0  0  0  0  0  0  0  0  0
   17.9426  -18.4538    0.0000 C    0  0  0  0  0  0  0  0  0  0  0  0
   28.6351  -14.2615    0.0000 Cl   0  5  0  0  0  0  0  0  0  0  0  0
  2  3  1  0  0  0  0
  2  4  2  0  0  0  0
  3  5  2  0  0  0  0
  4  6  1  0  0  0  0
  5  7  1  0  0  0  0
  6  7  2  0  0  0  0
  8  9  1  0  0  0  0
  8 10  2  0  0  0  0
  9 11  2  0  0  0  0
 10 12  1  0  0  0  0
 11 13  1  0  0  0  0
 12 13  2  0  0  0  0
 14 15  1  0  0  0  0
 15 16  1  0  0  0  0
 16 17  2  0  0  0  0
 14 18  2  0  0  0  0
 14 19  1  0  0  0  0
 14 20  1  0  0  0  0
 16 21  1  0  0  0  0
 16 22  1  0  0  0  0
 10 15  1  0  0  0  0
  4 15  1  0  0  0  0
 19 23  1  0  0  0  0
 20 24  1  0  0  0  0
 21 25  1  0  0  0  0
 22 26  1  0  0  0  0
  1 14  1  0  0  0  0
 27 28  1  0  0  0  0
 27 29  2  0  0  0  0
 28 30  2  0  0  0  0
 29 31  1  0  0  0  0
 30 32  1  0  0  0  0
 31 32  2  0  0  0  0
 33 34  1  0  0  0  0
 33 35  2  0  0  0  0
 34 36  2  0  0  0  0
 35 37  1  0  0  0  0
 36 38  1  0  0  0  0
 37 38  2  0  0  0  0
 39 40  1  0  0  0  0
 40 41  1  0  0  0  0
 41 42  2  0  0  0  0
 39 43  2  0  0  0  0
 39 44  1  0  0  0  0
 39 45  1  0  0  0  0
 41 46  1  0  0  0  0
 41 47  1  0  0  0  0
 35 40  1  0  0  0  0
 29 40  1  0  0  0  0
 44 48  1  0  0  0  0
 45 49  1  0  0  0  0
 46 50  1  0  0  0  0
 47 51  1  0  0  0  0
  1 39  1  0  0  0  0
M  END
> <NMREDATA_VERSION>
1.1

> <NMREDATA_LEVEL>
0

> <NMREDATA_SOLVENT>
CD2Cl2

> <NMREDATA_FORMULA>
C34H45ClO12P4Rh

> <NMREDATA_SMILES>
CO[P](=O)(C(P(=O)(OC)OC)(c1ccccc1)c1ccccc1)([Rh][P](=O)(C(P(=O)(OC)OC)(c1ccccc1)c1ccccc1)(OC)OC)OC.Cl

> <NMREDATA_ASSIGNMENT>
Rh1, -731.00, 1

> <NMREDATA_1D_103Rh>
-731.00, L=Rh1

$$$$
