
  ACD/LABS03292412432D

 35 39  0  0  0  0  0  0  0  0  1 V2000
   22.3028  -13.2075    0.0000 C    0  0  0  0  0  0  0  0  0  0  0  0
   23.3287  -12.3595    0.0000 C    0  0  0  0  0  0  0  0  0  0  0  0
   22.5364  -14.5162    0.0000 C    0  0  0  0  0  0  0  0  0  0  0  0
   24.5710  -12.8089    0.0000 N    0  0  0  0  0  0  0  0  0  0  0  0
   23.7834  -14.9736    0.0000 C    0  0  0  0  0  0  0  0  0  0  0  0
   24.8048  -14.1179    0.0000 C    0  0  0  0  0  0  0  0  0  0  0  0
   16.4971  -11.7167    0.0000 C    0  0  0  0  0  0  0  0  0  0  0  0
   15.3453  -12.3817    0.0000 C    0  0  0  0  0  0  0  0  0  0  0  0
   17.6494  -12.3824    0.0000 C    0  0  0  0  0  0  0  0  0  0  0  0
   15.3458  -13.7124    0.0000 C    0  0  0  0  0  0  0  0  0  0  0  0
   17.6497  -13.7131    0.0000 C    0  0  0  0  0  0  0  0  0  0  0  0
   16.4979  -14.3781    0.0000 C    0  0  0  0  0  0  0  0  0  0  0  0
   20.7909  -13.2309    0.0000 C    0  0  0  0  0  0  0  0  0  0  0  0
   21.4565  -12.0785    0.0000 C    0  0  0  0  0  0  0  0  0  0  0  0
   19.4601  -13.2311    0.0000 C    0  0  0  0  0  0  0  0  0  0  0  0
   20.7915  -10.9267    0.0000 C    0  0  0  0  0  0  0  0  0  0  0  0
   18.7951  -12.0793    0.0000 C    0  0  0  0  0  0  0  0  0  0  0  0
   19.4607  -10.9270    0.0000 C    0  0  0  0  0  0  0  0  0  0  0  0
   18.4051  -16.6351    0.0000 C    0  0  0  0  0  0  0  0  0  0  0  0
   17.5485  -17.6520    0.0000 C    0  0  0  0  0  0  0  0  0  0  0  0
   17.9455  -15.3957    0.0000 C    0  0  0  0  0  0  0  0  0  0  0  0
   16.2398  -17.4244    0.0000 C    0  0  0  0  0  0  0  0  0  0  0  0
   16.6367  -15.1685    0.0000 C    0  0  0  0  0  0  0  0  0  0  0  0
   15.7800  -16.1851    0.0000 C    0  0  0  0  0  0  0  0  0  0  0  0
   21.5107  -15.3645    0.0000 Rh   0  0  0  0  0  0  0  0  0  0  0  0
   22.7623  -15.8295    0.0000 H    0  0  0  0  0  0  0  0  0  0  0  0
   21.2894  -14.0585    0.0000 H    0  0  0  0  0  0  0  0  0  0  0  0
   18.8022  -14.3790    0.0000 P    0  0  0  0  0  0  0  0  0  0  0  0
   21.7366  -16.6777    0.0000 Cl   0  0  0  0  0  0  0  0  0  0  0  0
   20.8529  -16.5119    0.0000 C    0  0  0  0  0  0  0  0  0  0  0  0
   21.5103  -17.6685    0.0000 C    0  0  0  0  0  0  0  0  0  0  0  0
   19.5175  -16.5049    0.0000 C    0  0  0  0  0  0  0  0  0  0  0  0
   20.8401  -18.8128    0.0000 C    0  0  0  0  0  0  0  0  0  0  0  0
   18.8475  -17.6495    0.0000 C    0  0  0  0  0  0  0  0  0  0  0  0
   19.5047  -18.8058    0.0000 N    0  0  0  0  0  0  0  0  0  0  0  0
  1  2  1  0  0  0  0
  1  3  2  0  0  0  0
  2  4  2  0  0  0  0
  3  5  1  0  0  0  0
  4  6  1  0  0  0  0
  5  6  2  0  0  0  0
  7  8  1  0  0  0  0
  7  9  1  0  0  0  0
  8 10  1  0  0  0  0
  9 11  1  0  0  0  0
 10 12  1  0  0  0  0
 11 12  1  0  0  0  0
 13 14  1  0  0  0  0
 13 15  1  0  0  0  0
 14 16  1  0  0  0  0
 15 17  1  0  0  0  0
 16 18  1  0  0  0  0
 17 18  1  0  0  0  0
 19 20  1  0  0  0  0
 19 21  1  0  0  0  0
 20 22  1  0  0  0  0
 21 23  1  0  0  0  0
 22 24  1  0  0  0  0
 23 24  1  0  0  0  0
 25 26  1  0  0  0  0
 25 27  1  0  0  0  0
 25 28  1  0  0  0  0
 21 28  1  0  0  0  0
 15 28  1  0  0  0  0
 11 28  1  0  0  0  0
 25 29  1  0  0  0  0
 30 31  1  0  0  0  0
 30 32  2  0  0  0  0
 31 33  2  0  0  0  0
 32 34  1  0  0  0  0
 33 35  1  0  0  0  0
 34 35  2  0  0  0  0
 25 30  1  0  0  0  0
  3 25  1  0  0  0  0
M  END
> <NMREDATA_VERSION>
1.1

> <NMREDATA_LEVEL>
0

> <NMREDATA_SOLVENT>
pyridine-d5

> <NMREDATA_TEMPERATURE>
235

> <NMREDATA_FORMULA>
C28H44ClN2PRh

> <NMREDATA_SMILES>
Cl[RhH2](P(C1CCCCC1)(C1CCCCC1)C1CCCCC1)(c1ccncc1)c1ccncc1

> <NMREDATA_ASSIGNMENT>
Rh25, 408.00, 25

> <NMREDATA_1D_103Rh>
408.00, L=Rh25

$$$$
