
  ACD/LABS03122417242D

 36 38  0  0  0  0  0  0  0  0  2 V2000
   30.6541  -17.0477    0.0000 C    0  0  0  0  0  0  0  0  0  0  0  0
   29.9891  -18.1995    0.0000 C    0  0  0  0  0  0  0  0  0  0  0  0
   29.9891  -15.8958    0.0000 C    0  0  0  0  0  0  0  0  0  0  0  0
   28.6591  -18.1995    0.0000 C    0  0  0  0  0  0  0  0  0  0  0  0
   28.6591  -15.8958    0.0000 C    0  0  0  0  0  0  0  0  0  0  0  0
   27.9941  -17.0477    0.0000 C    0  0  0  0  0  0  0  0  0  0  0  0
   27.9941  -14.7440    0.0000 B    0  5  0  0  0  0  0  0  0  0  0  0
   29.1459  -14.0790    0.0000 C    0  0  0  0  0  0  0  0  0  0  0  0
   29.1459  -12.7490    0.0000 C    0  0  0  0  0  0  0  0  0  0  0  0
   30.2977  -14.7440    0.0000 C    0  0  0  0  0  0  0  0  0  0  0  0
   30.2977  -12.0840    0.0000 C    0  0  0  0  0  0  0  0  0  0  0  0
   31.4495  -14.0790    0.0000 C    0  0  0  0  0  0  0  0  0  0  0  0
   31.4495  -12.7490    0.0000 C    0  0  0  0  0  0  0  0  0  0  0  0
   26.8423  -15.4090    0.0000 C    0  0  0  0  0  0  0  0  0  0  0  0
   26.8423  -16.7390    0.0000 C    0  0  0  0  0  0  0  0  0  0  0  0
   25.6905  -14.7440    0.0000 C    0  0  0  0  0  0  0  0  0  0  0  0
   25.6905  -17.4040    0.0000 C    0  0  0  0  0  0  0  0  0  0  0  0
   24.5387  -15.4090    0.0000 C    0  0  0  0  0  0  0  0  0  0  0  0
   24.5387  -16.7390    0.0000 C    0  0  0  0  0  0  0  0  0  0  0  0
   27.3291  -13.5922    0.0000 C    0  0  0  0  0  0  0  0  0  0  0  0
   25.9991  -13.5922    0.0000 C    0  0  0  0  0  0  0  0  0  0  0  0
   27.9941  -12.4404    0.0000 C    0  0  0  0  0  0  0  0  0  0  0  0
   25.3341  -12.4404    0.0000 C    0  0  0  0  0  0  0  0  0  0  0  0
   27.3291  -11.2886    0.0000 C    0  0  0  0  0  0  0  0  0  0  0  0
   25.9991  -11.2886    0.0000 C    0  0  0  0  0  0  0  0  0  0  0  0
    9.1374  -11.4529    0.0000 Rh   0  5  0  0  0  0  0  0  0  0  0  0
   10.7472  -10.5235    0.0000 C    0  0  0  0  0  0  0  0  0  0  0  0
   12.3569   -9.5941    0.0000 O    0  0  0  0  0  0  0  0  0  0  0  0
   10.0668  -13.0627    0.0000 C    0  0  0  0  0  0  0  0  0  0  0  0
   10.9962  -14.6724    0.0000 O    0  0  0  0  0  0  0  0  0  0  0  0
    8.2080   -9.8431    0.0000 C    0  0  0  0  0  0  0  0  0  0  0  0
    7.2786   -8.2334    0.0000 N    0  3  0  0  0  0  0  0  0  0  0  0
    6.3492   -6.6236    0.0000 C    0  0  0  0  0  0  0  0  0  0  0  0
    7.5277  -12.3823    0.0000 C    0  0  0  0  0  0  0  0  0  0  0  0
    5.9179  -13.3117    0.0000 N    0  3  0  0  0  0  0  0  0  0  0  0
    4.3081  -14.2411    0.0000 C    0  0  0  0  0  0  0  0  0  0  0  0
  1  2  1  0  0  0  0
  1  3  2  0  0  0  0
  2  4  2  0  0  0  0
  3  5  1  0  0  0  0
  4  6  1  0  0  0  0
  5  6  2  0  0  0  0
  8  9  1  0  0  0  0
  8 10  2  0  0  0  0
  9 11  2  0  0  0  0
 10 12  1  0  0  0  0
 11 13  1  0  0  0  0
 12 13  2  0  0  0  0
  7  8  1  0  0  0  0
 14 15  1  0  0  0  0
 14 16  2  0  0  0  0
 15 17  2  0  0  0  0
 16 18  1  0  0  0  0
 17 19  1  0  0  0  0
 18 19  2  0  0  0  0
  7 14  1  0  0  0  0
 20 21  1  0  0  0  0
 20 22  2  0  0  0  0
 21 23  2  0  0  0  0
 22 24  1  0  0  0  0
 23 25  1  0  0  0  0
 24 25  2  0  0  0  0
  7 20  1  0  0  0  0
  5  7  1  0  0  0  0
 26 27  1  0  0  0  0
 27 28  3  0  0  0  0
 26 29  1  0  0  0  0
 29 30  3  0  0  0  0
 31 32  3  0  0  0  0
 26 31  1  0  0  0  0
 32 33  1  0  0  0  0
 34 35  3  0  0  0  0
 26 34  1  0  0  0  0
 35 36  1  0  0  0  0
M  END
> <NMREDATA_VERSION>
1.1

> <NMREDATA_LEVEL>
0

> <NMREDATA_SOLVENT>
CD3CN

> <NMREDATA_TEMPERATURE>
298

> <NMREDATA_FORMULA>
C30H28BN2O2Rh

> <NMREDATA_SMILES>
c1ccc(cc1)[B](c1ccccc1)(c1ccccc1)c1ccccc1.CN#C[Rh](C#NC)(C#[O])C#[O]

> <NMREDATA_ASSIGNMENT>
Rh26, -54.00, 26

> <NMREDATA_1D_103Rh>
-54.00, L=Rh26

$$$$
