
  ACD/LABS03132411472D

 67 75  0  0  0  0  0  0  0  0  1 V2000
   10.6923  -20.7693    0.0000 C    0  0  0  0  0  0  0  0  0  0  0  0
    9.6754  -19.9127    0.0000 C    0  0  0  0  0  0  0  0  0  0  0  0
   11.9371  -20.3171    0.0000 C    0  0  0  0  0  0  0  0  0  0  0  0
    9.9152  -18.6071    0.0000 C    0  0  0  0  0  0  0  0  0  0  0  0
   12.1764  -19.0113    0.0000 C    0  0  0  0  0  0  0  0  0  0  0  0
   11.1641  -18.1627    0.0000 C    0  0  0  0  0  0  0  0  0  0  0  0
   13.4650  -22.0771    0.0000 C    0  0  0  0  0  0  0  0  0  0  0  0
   14.7785  -22.3123    0.0000 C    0  0  0  0  0  0  0  0  0  0  0  0
   13.0206  -20.8283    0.0000 C    0  0  0  0  0  0  0  0  0  0  0  0
   15.6354  -21.2952    0.0000 C    0  0  0  0  0  0  0  0  0  0  0  0
   13.8775  -19.8111    0.0000 C    0  0  0  0  0  0  0  0  0  0  0  0
   15.1911  -20.0464    0.0000 C    0  0  0  0  0  0  0  0  0  0  0  0
   16.8346  -18.9028    0.0000 C    0  0  0  0  0  0  0  0  0  0  0  0
   15.5253  -19.1364    0.0000 C    0  0  0  0  0  0  0  0  0  0  0  0
   17.2922  -17.6556    0.0000 C    0  0  0  0  0  0  0  0  0  0  0  0
   14.6694  -18.1146    0.0000 C    0  0  0  0  0  0  0  0  0  0  0  0
   16.4359  -16.6340    0.0000 C    0  0  0  0  0  0  0  0  0  0  0  0
   15.1270  -16.8674    0.0000 C    0  0  0  0  0  0  0  0  0  0  0  0
   13.4287  -18.5548    0.0000 P    0  0  0  0  0  0  0  0  0  0  0  0
    5.4864  -15.6543    0.0000 C    0  0  0  0  0  0  0  0  0  0  0  0
    5.2572  -14.3526    0.0000 C    0  0  0  0  0  0  0  0  0  0  0  0
    6.7336  -16.1120    0.0000 C    0  0  0  0  0  0  0  0  0  0  0  0
    6.2787  -13.4969    0.0000 C    0  0  0  0  0  0  0  0  0  0  0  0
    7.7593  -15.2635    0.0000 C    0  0  0  0  0  0  0  0  0  0  0  0
    7.5259  -13.9545    0.0000 C    0  0  0  0  0  0  0  0  0  0  0  0
    8.9478  -19.2375    0.0000 C    0  0  0  0  0  0  0  0  0  0  0  0
    7.6338  -19.4631    0.0000 C    0  0  0  0  0  0  0  0  0  0  0  0
    9.4052  -17.9899    0.0000 C    0  0  0  0  0  0  0  0  0  0  0  0
    6.7825  -18.4493    0.0000 C    0  0  0  0  0  0  0  0  0  0  0  0
    8.5495  -16.9685    0.0000 C    0  0  0  0  0  0  0  0  0  0  0  0
    7.2358  -17.1945    0.0000 C    0  0  0  0  0  0  0  0  0  0  0  0
    9.0658  -12.2048    0.0000 C    0  0  0  0  0  0  0  0  0  0  0  0
    8.6084  -13.4524    0.0000 C    0  0  0  0  0  0  0  0  0  0  0  0
   10.3751  -11.9712    0.0000 C    0  0  0  0  0  0  0  0  0  0  0  0
    9.4645  -14.4736    0.0000 C    0  0  0  0  0  0  0  0  0  0  0  0
   11.2314  -12.9928    0.0000 C    0  0  0  0  0  0  0  0  0  0  0  0
   10.7738  -14.2400    0.0000 C    0  0  0  0  0  0  0  0  0  0  0  0
   13.1998  -17.2534    0.0000 Rh   0  0  0  0  0  0  0  0  0  0  0  0
    9.0069  -15.7208    0.0000 P    0  0  0  0  0  0  0  0  0  0  0  0
   18.2843  -18.8238    0.0000 N    0  0  0  0  0  0  0  0  0  0  0  0
   19.6137  -18.7319    0.0000 C    0  0  0  0  0  0  0  0  0  0  0  0
   17.9597  -20.1070    0.0000 N    0  0  0  0  0  0  0  0  0  0  0  0
   20.1090  -19.9619    0.0000 C    0  0  0  0  0  0  0  0  0  0  0  0
   19.0871  -20.8179    0.0000 C    0  0  0  0  0  0  0  0  0  0  0  0
   20.3126  -17.6012    0.0000 C    0  0  0  0  0  0  0  0  0  0  0  0
   19.1787  -22.1475    0.0000 C    0  0  0  0  0  0  0  0  0  0  0  0
   14.4262  -12.6739    0.0000 N    0  0  0  0  0  0  0  0  0  0  0  0
   15.3463  -11.7128    0.0000 C    0  0  0  0  0  0  0  0  0  0  0  0
   13.2237  -12.0985    0.0000 N    0  0  0  0  0  0  0  0  0  0  0  0
   14.7119  -10.5429    0.0000 C    0  0  0  0  0  0  0  0  0  0  0  0
   13.4025  -10.7765    0.0000 C    0  0  0  0  0  0  0  0  0  0  0  0
   16.6607  -11.8961    0.0000 C    0  0  0  0  0  0  0  0  0  0  0  0
   12.4413   -9.8570    0.0000 C    0  0  0  0  0  0  0  0  0  0  0  0
   15.4166  -15.4001    0.0000 B    0  0  0  0  0  0  0  0  0  0  0  0
   16.4378  -14.5440    0.0000 N    0  0  0  0  0  0  0  0  0  0  0  0
   16.3506  -13.2219    0.0000 C    0  0  0  0  0  0  0  0  0  0  0  0
   17.7333  -14.8716    0.0000 N    0  0  0  0  0  0  0  0  0  0  0  0
   17.5885  -12.7227    0.0000 C    0  0  0  0  0  0  0  0  0  0  0  0
   18.4366  -13.7485    0.0000 C    0  0  0  0  0  0  0  0  0  0  0  0
   15.2232  -12.5111    0.0000 C    0  0  0  0  0  0  0  0  0  0  0  0
   19.7662  -13.6569    0.0000 C    0  0  0  0  0  0  0  0  0  0  0  0
   10.8002  -10.9445    0.0000 F    0  0  0  0  0  0  0  0  0  0  0  0
    4.1342  -14.0211    0.0000 F    0  0  0  0  0  0  0  0  0  0  0  0
    7.1628  -20.7672    0.0000 F    0  0  0  0  0  0  0  0  0  0  0  0
    8.7171  -20.3025    0.0000 F    0  0  0  0  0  0  0  0  0  0  0  0
   15.5754  -23.2990    0.0000 F    0  0  0  0  0  0  0  0  0  0  0  0
   18.3155  -17.2419    0.0000 F    0  0  0  0  0  0  0  0  0  0  0  0
  1  2  1  0  0  0  0
  1  3  2  0  0  0  0
  2  4  2  0  0  0  0
  3  5  1  0  0  0  0
  4  6  1  0  0  0  0
  5  6  2  0  0  0  0
  7  8  1  0  0  0  0
  7  9  2  0  0  0  0
  8 10  2  0  0  0  0
  9 11  1  0  0  0  0
 10 12  1  0  0  0  0
 11 12  2  0  0  0  0
 13 14  1  0  0  0  0
 13 15  2  0  0  0  0
 14 16  2  0  0  0  0
 15 17  1  0  0  0  0
 16 18  1  0  0  0  0
 17 18  2  0  0  0  0
 16 19  1  0  0  0  0
 11 19  1  0  0  0  0
  5 19  1  0  0  0  0
 20 21  1  0  0  0  0
 20 22  2  0  0  0  0
 21 23  2  0  0  0  0
 22 24  1  0  0  0  0
 23 25  1  0  0  0  0
 24 25  2  0  0  0  0
 26 27  1  0  0  0  0
 26 28  2  0  0  0  0
 27 29  2  0  0  0  0
 28 30  1  0  0  0  0
 29 31  1  0  0  0  0
 30 31  2  0  0  0  0
 32 33  1  0  0  0  0
 32 34  2  0  0  0  0
 33 35  2  0  0  0  0
 34 36  1  0  0  0  0
 35 37  1  0  0  0  0
 36 37  2  0  0  0  0
 38 39  1  0  0  0  0
 35 39  1  0  0  0  0
 30 39  1  0  0  0  0
 24 39  1  0  0  0  0
 19 38  1  0  0  0  0
 40 41  1  0  0  0  0
 40 42  1  0  0  0  0
 41 43  2  0  0  0  0
 42 44  2  0  0  0  0
 43 44  1  0  0  0  0
 41 45  1  0  0  0  0
 44 46  1  0  0  0  0
 47 48  1  0  0  0  0
 47 49  1  0  0  0  0
 48 50  2  0  0  0  0
 49 51  2  0  0  0  0
 50 51  1  0  0  0  0
 48 52  1  0  0  0  0
 51 53  1  0  0  0  0
 55 56  1  0  0  0  0
 55 57  1  0  0  0  0
 56 58  2  0  0  0  0
 57 59  2  0  0  0  0
 58 59  1  0  0  0  0
 54 55  1  0  0  0  0
 56 60  1  0  0  0  0
 59 61  1  0  0  0  0
 47 54  1  0  0  0  0
 40 54  1  0  0  0  0
 38 54  1  0  0  0  0
 34 62  1  0  0  0  0
 21 63  1  0  0  0  0
 27 64  1  0  0  0  0
  2 65  1  0  0  0  0
  8 66  1  0  0  0  0
 15 67  1  0  0  0  0
M  END
> <NMREDATA_VERSION>
1.1

> <NMREDATA_LEVEL>
0

> <NMREDATA_SOLVENT>
CD2Cl2

> <NMREDATA_TEMPERATURE>
300

> <NMREDATA_FORMULA>
C51H47BF6N6P2Rh

> <NMREDATA_SMILES>
Fc1ccc(cc1)P([Rh](P(c1ccc(cc1)F)(c1ccc(cc1)F)c1ccc(cc1)F)[B](n1nc(cc1C)C)(n1nc(cc1C)C)n1nc(cc1C)C)(c1ccc(cc1)F)c1ccc(cc1)F

> <NMREDATA_ASSIGNMENT>
Rh38, 313.00, 38

> <NMREDATA_1D_103Rh>
313.00, L=Rh38

$$$$
