
  ACD/LABS03262412102D

 44 47  0  0  0  0  0  0  0  0  1 V2000
   15.7566   -3.8084    0.0000 C    0  0  0  0  0  0  0  0  0  0  0  0
   15.7566   -5.1384    0.0000 C    0  0  0  0  0  0  0  0  0  0  0  0
   14.6048   -3.1434    0.0000 C    0  0  0  0  0  0  0  0  0  0  0  0
   14.6048   -5.8034    0.0000 C    0  0  0  0  0  0  0  0  0  0  0  0
   13.4530   -3.8084    0.0000 C    0  0  0  0  0  0  0  0  0  0  0  0
   13.4530   -5.1384    0.0000 C    0  0  0  0  0  0  0  0  0  0  0  0
    9.9975  -12.4534    0.0000 O    0  0  0  0  0  0  0  0  0  0  0  0
   11.1493  -11.7884    0.0000 N    0  0  0  0  0  0  0  0  0  0  0  0
   12.3012  -12.4534    0.0000 C    0  0  0  0  0  0  0  0  0  0  0  0
   12.3012  -13.7834    0.0000 C    0  0  0  0  0  0  0  0  0  0  0  0
   13.4530  -11.7884    0.0000 C    0  0  0  0  0  0  0  0  0  0  0  0
   14.6048  -12.4534    0.0000 C    0  0  0  0  0  0  0  0  0  0  0  0
   13.4530  -10.4584    0.0000 N    0  0  0  0  0  0  0  0  0  0  0  0
   14.6048   -9.7934    0.0000 O    0  0  0  0  0  0  0  0  0  0  0  0
    8.6198  -11.9189    0.0000 O    0  0  0  0  0  0  0  0  0  0  0  0
    9.2848  -10.7670    0.0000 N    0  0  0  0  0  0  0  0  0  0  0  0
   10.6148  -10.7670    0.0000 C    0  0  0  0  0  0  0  0  0  0  0  0
   11.2798  -11.9189    0.0000 C    0  0  0  0  0  0  0  0  0  0  0  0
   11.2798   -9.6152    0.0000 C    0  0  0  0  0  0  0  0  0  0  0  0
   10.6148   -8.4634    0.0000 C    0  0  0  0  0  0  0  0  0  0  0  0
   12.6098   -9.6152    0.0000 N    0  0  0  0  0  0  0  0  0  0  0  0
   13.2748   -8.4634    0.0000 O    0  0  0  0  0  0  0  0  0  0  0  0
   14.6048   -8.4634    0.0000 Rh   0  0  0  0  0  0  0  0  0  0  0  0
   15.9348   -8.4634    0.0000 C    0  0  0  0  0  0  0  0  0  0  0  0
   16.5998   -9.6152    0.0000 C    0  0  0  0  0  0  0  0  0  0  0  0
   14.6048   -7.1334    0.0000 P    0  0  0  0  0  0  0  0  0  0  0  0
   15.9348   -7.1334    0.0000 C    0  0  0  0  0  0  0  0  0  0  0  0
   16.5998   -5.9816    0.0000 C    0  0  0  0  0  0  0  0  0  0  0  0
   16.5998   -8.2852    0.0000 C    0  0  0  0  0  0  0  0  0  0  0  0
   17.9298   -5.9816    0.0000 C    0  0  0  0  0  0  0  0  0  0  0  0
   17.9298   -8.2852    0.0000 C    0  0  0  0  0  0  0  0  0  0  0  0
   18.5948   -7.1334    0.0000 C    0  0  0  0  0  0  0  0  0  0  0  0
   13.2748   -7.1334    0.0000 C    0  0  0  0  0  0  0  0  0  0  0  0
   12.6098   -8.2852    0.0000 C    0  0  0  0  0  0  0  0  0  0  0  0
   12.6098   -5.9816    0.0000 C    0  0  0  0  0  0  0  0  0  0  0  0
   11.2798   -8.2852    0.0000 C    0  0  0  0  0  0  0  0  0  0  0  0
   11.2798   -5.9816    0.0000 C    0  0  0  0  0  0  0  0  0  0  0  0
   10.6148   -7.1334    0.0000 C    0  0  0  0  0  0  0  0  0  0  0  0
   17.9298   -9.6152    0.0000 C    0  0  0  0  0  0  0  0  0  0  0  0
   18.5948   -8.4634    0.0000 C    0  0  0  0  0  0  0  0  0  0  0  0
   18.5948  -10.7670    0.0000 C    0  0  0  0  0  0  0  0  0  0  0  0
   19.9248   -8.4634    0.0000 C    0  0  0  0  0  0  0  0  0  0  0  0
   19.9248  -10.7670    0.0000 C    0  0  0  0  0  0  0  0  0  0  0  0
   20.5898   -9.6152    0.0000 C    0  0  0  0  0  0  0  0  0  0  0  0
  1  2  1  0  0  0  0
  1  3  2  0  0  0  0
  2  4  2  0  0  0  0
  3  5  1  0  0  0  0
  4  6  1  0  0  0  0
  5  6  2  0  0  0  0
  7  8  1  0  0  0  0
  8  9  2  0  0  0  0
  9 10  1  0  0  0  0
  9 11  1  0  0  0  0
 11 12  1  0  0  0  0
 11 13  2  0  0  0  0
 13 14  1  0  0  0  0
 15 16  1  0  0  0  0
 16 17  2  0  0  0  0
 17 18  1  0  0  0  0
 17 19  1  0  0  0  0
 19 20  1  0  0  0  0
 19 21  2  0  0  0  0
 21 22  1  0  0  0  0
 22 23  1  0  0  0  0
 14 23  1  0  0  0  0
 23 24  1  0  0  0  0
 24 25  2  0  0  0  0
 23 26  1  0  0  0  0
 27 28  1  0  0  0  0
 27 29  2  0  0  0  0
 28 30  2  0  0  0  0
 29 31  1  0  0  0  0
 30 32  1  0  0  0  0
 31 32  2  0  0  0  0
 26 27  1  0  0  0  0
 33 34  1  0  0  0  0
 33 35  2  0  0  0  0
 34 36  2  0  0  0  0
 35 37  1  0  0  0  0
 36 38  1  0  0  0  0
 37 38  2  0  0  0  0
 26 33  1  0  0  0  0
  4 26  1  0  0  0  0
 39 40  1  0  0  0  0
 39 41  2  0  0  0  0
 40 42  2  0  0  0  0
 41 43  1  0  0  0  0
 42 44  1  0  0  0  0
 43 44  2  0  0  0  0
 25 39  1  0  0  0  0
M  END
> <NMREDATA_VERSION>
1.1

> <NMREDATA_LEVEL>
0

> <NMREDATA_SOLVENT>
DCCl3

> <NMREDATA_TEMPERATURE>
298

> <NMREDATA_FORMULA>
C34H37N4O4PRh

> <NMREDATA_SMILES>
O/N=C(/C(=N/O[Rh](P(c1ccccc1)(c1ccccc1)c1ccccc1)(/C=C/c1ccccc1)O/N=C(/C(=N/O)/C)\C)/C)\C

> <NMREDATA_ASSIGNMENT>
Rh23, 2230.00, 23

> <NMREDATA_1D_103Rh>
2230.00, L=Rh23

$$$$
