
  ACD/LABS03282419282D

 20 18  0  0  0  0  0  0  0  0  2 V2000
   12.7017   -7.9471    0.0000 Rh   0  0  0  0  0  0  0  0  0  0  0  0
   14.1720   -7.0982    0.0000 H    0  0  0  0  0  0  0  0  0  0  0  0
   11.2408   -7.0916    0.0000 H    0  0  0  0  0  0  0  0  0  0  0  0
   12.7011   -6.2485    0.0000 P    0  0  0  0  0  0  0  0  0  0  0  0
   14.1667   -8.7870    0.0000 P    0  0  0  0  0  0  0  0  0  0  0  0
   11.2414   -8.7902    0.0000 P    0  0  0  0  0  0  0  0  0  0  0  0
   12.6999  -11.6335    0.0000 P    0  0  0  0  0  0  0  0  0  0  0  0
   11.0307   -5.9584    0.0000 C    0  0  0  0  0  0  0  0  0  0  0  0
   14.3774   -5.9603    0.0000 C    0  0  0  0  0  0  0  0  0  0  0  0
   12.7007   -4.5499    0.0000 C    0  0  0  0  0  0  0  0  0  0  0  0
   15.2544   -7.4794    0.0000 C    0  0  0  0  0  0  0  0  0  0  0  0
   13.5828  -10.3789    0.0000 C    0  0  0  0  0  0  0  0  0  0  0  0
   15.6377   -9.6369    0.0000 C    0  0  0  0  0  0  0  0  0  0  0  0
   10.1489   -7.4868    0.0000 C    0  0  0  0  0  0  0  0  0  0  0  0
   11.8182  -10.3781    0.0000 C    0  0  0  0  0  0  0  0  0  0  0  0
    9.7711   -9.6391    0.0000 C    0  0  0  0  0  0  0  0  0  0  0  0
   14.3886  -11.6386    0.0000 C    0  0  0  0  0  0  0  0  0  0  0  0
   11.0237  -11.9217    0.0000 C    0  0  0  0  0  0  0  0  0  0  0  0
   12.7003  -13.3322    0.0000 C    0  0  0  0  0  0  0  0  0  0  0  0
   21.1678   -8.7331    0.0000 Cl   0  5  0  0  0  0  0  0  0  0  0  0
  1  2  1  0  0  0  0
  1  3  1  0  0  0  0
  1  4  1  0  0  0  0
  1  5  1  0  0  0  0
  1  6  1  0  0  0  0
  1  7  1  0  0  0  0
  4  8  1  0  0  0  0
  4  9  1  0  0  0  0
  4 10  1  0  0  0  0
  5 11  1  0  0  0  0
  5 12  1  0  0  0  0
  5 13  1  0  0  0  0
  6 14  1  0  0  0  0
  6 15  1  0  0  0  0
  6 16  1  0  0  0  0
  7 17  1  0  0  0  0
  7 18  1  0  0  0  0
  7 19  1  0  0  0  0
M  END
> <NMREDATA_VERSION>
1.1

> <NMREDATA_LEVEL>
0

> <NMREDATA_SOLVENT>
CD2Cl2

> <NMREDATA_TEMPERATURE>
312

> <NMREDATA_FORMULA>
C12H43ClP4Rh

> <NMREDATA_SMILES>
CP([RhH2](P(C)(C)C)(P(C)(C)C)P(C)(C)C)(C)C.Cl

> <NMREDATA_ASSIGNMENT>
Rh1, -1007.00, 1

> <NMREDATA_1D_103Rh>
-1007.00, L=Rh1

$$$$
