
  ACD/LABS03212412382D

 54 60  0  0  0  0  0  0  0  0  1 V2000
   21.4347  -15.0598    0.0000 B    0  0  0  0  0  0  0  0  0  0  0  0
   20.1224  -15.2816    0.0000 N    0  0  0  0  0  0  0  0  0  0  0  0
   19.1826  -14.3595    0.0000 C    0  0  0  0  0  0  0  0  0  0  0  0
   19.5462  -16.4788    0.0000 N    0  0  0  0  0  0  0  0  0  0  0  0
   18.0032  -14.9801    0.0000 C    0  0  0  0  0  0  0  0  0  0  0  0
   18.2339  -16.2923    0.0000 C    0  0  0  0  0  0  0  0  0  0  0  0
   22.7470  -14.8295    0.0000 N    0  0  0  0  0  0  0  0  0  0  0  0
   23.7045  -15.7516    0.0000 C    0  0  0  0  0  0  0  0  0  0  0  0
   23.3321  -13.6323    0.0000 N    0  0  0  0  0  0  0  0  0  0  0  0
   24.8751  -15.1310    0.0000 C    0  0  0  0  0  0  0  0  0  0  0  0
   24.6447  -13.8184    0.0000 C    0  0  0  0  0  0  0  0  0  0  0  0
   21.6651  -16.3636    0.0000 N    0  0  0  0  0  0  0  0  0  0  0  0
   20.7341  -17.3211    0.0000 C    0  0  0  0  0  0  0  0  0  0  0  0
   22.8622  -16.9487    0.0000 N    0  0  0  0  0  0  0  0  0  0  0  0
   21.3638  -18.5005    0.0000 C    0  0  0  0  0  0  0  0  0  0  0  0
   22.6673  -18.2698    0.0000 C    0  0  0  0  0  0  0  0  0  0  0  0
   25.5757  -12.8701    0.0000 C    0  0  0  0  0  0  0  0  0  0  0  0
   23.7400  -17.0816    0.0000 C    0  0  0  0  0  0  0  0  0  0  0  0
   23.6248  -19.1923    0.0000 C    0  0  0  0  0  0  0  0  0  0  0  0
   19.4222  -17.3654    0.0000 C    0  0  0  0  0  0  0  0  0  0  0  0
   17.3030  -17.2503    0.0000 C    0  0  0  0  0  0  0  0  0  0  0  0
   19.3690  -13.0384    0.0000 C    0  0  0  0  0  0  0  0  0  0  0  0
   24.5292  -12.0100    0.0000 C    0  0  0  0  0  0  0  0  0  0  0  0
   25.1944  -10.8572    0.0000 C    0  0  0  0  0  0  0  0  0  0  0  0
   23.1992  -12.0100    0.0000 C    0  0  0  0  0  0  0  0  0  0  0  0
   24.5292   -9.7043    0.0000 C    0  0  0  0  0  0  0  0  0  0  0  0
   22.5344  -10.8572    0.0000 C    0  0  0  0  0  0  0  0  0  0  0  0
   23.1992   -9.7043    0.0000 C    0  0  0  0  0  0  0  0  0  0  0  0
   17.2232  -10.8572    0.0000 C    0  0  0  0  0  0  0  0  0  0  0  0
   17.8881   -9.7043    0.0000 C    0  0  0  0  0  0  0  0  0  0  0  0
   17.8881  -12.0100    0.0000 C    0  0  0  0  0  0  0  0  0  0  0  0
   19.2181   -9.7043    0.0000 C    0  0  0  0  0  0  0  0  0  0  0  0
   19.2181  -12.0100    0.0000 C    0  0  0  0  0  0  0  0  0  0  0  0
   19.8832  -10.8572    0.0000 C    0  0  0  0  0  0  0  0  0  0  0  0
   22.3568   -8.8620    0.0000 C    0  0  0  0  0  0  0  0  0  0  0  0
   22.3568   -7.5320    0.0000 C    0  0  0  0  0  0  0  0  0  0  0  0
   21.2040   -9.5272    0.0000 C    0  0  0  0  0  0  0  0  0  0  0  0
   21.2040   -6.8668    0.0000 C    0  0  0  0  0  0  0  0  0  0  0  0
   20.0604   -8.8620    0.0000 C    0  0  0  0  0  0  0  0  0  0  0  0
   20.0604   -7.5320    0.0000 C    0  0  0  0  0  0  0  0  0  0  0  0
   21.2040  -13.7475    0.0000 Rh   0  0  0  0  0  0  0  0  0  0  0  0
   22.5344  -13.7475    0.0000 H    0  0  0  0  0  0  0  0  0  0  0  0
   19.8832  -13.7475    0.0000 C    0  0  0  0  0  0  0  0  0  0  0  0
   18.5532  -13.7475    0.0000 C    0  0  0  0  0  0  0  0  0  0  0  0
   14.5629  -13.7475    0.0000 C    0  0  0  0  0  0  0  0  0  0  0  0
   15.2281  -12.6039    0.0000 C    0  0  0  0  0  0  0  0  0  0  0  0
   15.2281  -14.9003    0.0000 C    0  0  0  0  0  0  0  0  0  0  0  0
   16.5581  -12.6039    0.0000 C    0  0  0  0  0  0  0  0  0  0  0  0
   16.5581  -14.9003    0.0000 C    0  0  0  0  0  0  0  0  0  0  0  0
   17.2232  -13.7475    0.0000 C    0  0  0  0  0  0  0  0  0  0  0  0
   21.2040  -10.8572    0.0000 P    0  0  0  0  0  0  0  0  0  0  0  0
   16.1202  -10.8643    0.0000 F    0  0  0  0  0  0  0  0  0  0  0  0
   21.2319   -6.0571    0.0000 F    0  0  0  0  0  0  0  0  0  0  0  0
   26.0872  -10.8643    0.0000 F    0  0  0  0  0  0  0  0  0  0  0  0
  2  3  1  0  0  0  0
  2  4  1  0  0  0  0
  3  5  2  0  0  0  0
  4  6  2  0  0  0  0
  5  6  1  0  0  0  0
  1  2  1  0  0  0  0
  7  8  1  0  0  0  0
  7  9  1  0  0  0  0
  8 10  2  0  0  0  0
  9 11  2  0  0  0  0
 10 11  1  0  0  0  0
  1  7  1  0  0  0  0
 12 13  1  0  0  0  0
 12 14  1  0  0  0  0
 13 15  2  0  0  0  0
 14 16  2  0  0  0  0
 15 16  1  0  0  0  0
  1 12  1  0  0  0  0
 11 17  1  0  0  0  0
  8 18  1  0  0  0  0
 16 19  1  0  0  0  0
 13 20  1  0  0  0  0
  6 21  1  0  0  0  0
  3 22  1  0  0  0  0
 23 24  1  0  0  0  0
 23 25  2  0  0  0  0
 24 26  2  0  0  0  0
 25 27  1  0  0  0  0
 26 28  1  0  0  0  0
 27 28  2  0  0  0  0
 29 30  1  0  0  0  0
 29 31  2  0  0  0  0
 30 32  2  0  0  0  0
 31 33  1  0  0  0  0
 32 34  1  0  0  0  0
 33 34  2  0  0  0  0
 35 36  1  0  0  0  0
 35 37  2  0  0  0  0
 36 38  2  0  0  0  0
 37 39  1  0  0  0  0
 38 40  1  0  0  0  0
 39 40  2  0  0  0  0
 41 42  1  0  0  0  0
 41 43  1  0  0  0  0
 43 44  3  0  0  0  0
 45 46  1  0  0  0  0
 45 47  2  0  0  0  0
 46 48  2  0  0  0  0
 47 49  1  0  0  0  0
 48 50  1  0  0  0  0
 49 50  2  0  0  0  0
 44 50  1  0  0  0  0
 41 51  1  0  0  0  0
 37 51  1  0  0  0  0
 34 51  1  0  0  0  0
 27 51  1  0  0  0  0
  1 41  1  0  0  0  0
 29 52  1  0  0  0  0
 38 53  1  0  0  0  0
 24 54  1  0  0  0  0
M  END
> <NMREDATA_VERSION>
1.1

> <NMREDATA_LEVEL>
0

> <NMREDATA_SOLVENT>
CD2Cl2

> <NMREDATA_TEMPERATURE>
300

> <NMREDATA_FORMULA>
C41H40BF3N6PRh

> <NMREDATA_SMILES>
Fc1ccc(cc1)P([RhH]([B](n1nc(cc1C)C)(n1nc(cc1C)C)n1nc(cc1C)C)C#Cc1ccccc1)(c1ccc(cc1)F)c1ccc(cc1)F

> <NMREDATA_ASSIGNMENT>
Rh41, 1417.00, 41

> <NMREDATA_1D_103Rh>
1417.00, L=Rh41

$$$$
