
  ACD/LABS02122411432D

 28 30  0  0  0  0  0  0  0  0  1 V2000
   19.3311  -12.4456    0.0000 C    0  0  0  0  0  0  0  0  0  0  0  0
   18.8256  -13.6783    0.0000 C    0  0  0  0  0  0  0  0  0  0  0  0
   20.5549  -11.9401    0.0000 C    0  0  0  0  0  0  0  0  0  0  0  0
   21.7876  -12.4456    0.0000 C    0  0  0  0  0  0  0  0  0  0  0  0
   19.3311  -14.9109    0.0000 C    0  0  0  0  0  0  0  0  0  0  0  0
   22.2928  -13.6783    0.0000 C    0  0  0  0  0  0  0  0  0  0  0  0
   20.5549  -15.4164    0.0000 C    0  0  0  0  0  0  0  0  0  0  0  0
   21.7876  -14.9109    0.0000 C    0  0  0  0  0  0  0  0  0  0  0  0
   17.4956  -13.6783    0.0000 Rh   0  0  0  0  0  0  0  0  0  0  0  0
   17.4956  -15.0086    0.0000 C    0  0  0  0  0  0  0  0  0  0  0  0
   16.5204  -10.9563    0.0000 P    0  0  0  0  0  0  0  0  0  0  0  0
   16.1745  -13.6783    0.0000 P    0  0  0  0  0  0  0  0  0  0  0  0
   15.2700  -11.3992    0.0000 C    0  0  0  0  0  0  0  0  0  0  0  0
   17.7616  -10.5128    0.0000 C    0  0  0  0  0  0  0  0  0  0  0  0
   16.1745  -12.3483    0.0000 C    0  0  0  0  0  0  0  0  0  0  0  0
   16.1745  -15.0086    0.0000 C    0  0  0  0  0  0  0  0  0  0  0  0
   14.8445  -13.6783    0.0000 C    0  0  0  0  0  0  0  0  0  0  0  0
   14.1792  -14.8310    0.0000 C    0  0  0  0  0  0  0  0  0  0  0  0
   14.1792  -12.5255    0.0000 C    0  0  0  0  0  0  0  0  0  0  0  0
   12.8492  -14.8310    0.0000 C    0  0  0  0  0  0  0  0  0  0  0  0
   12.8492  -12.5255    0.0000 C    0  0  0  0  0  0  0  0  0  0  0  0
   12.1842  -13.6783    0.0000 C    0  0  0  0  0  0  0  0  0  0  0  0
   16.0680   -9.7059    0.0000 C    0  0  0  0  0  0  0  0  0  0  0  0
   14.7557   -9.4753    0.0000 C    0  0  0  0  0  0  0  0  0  0  0  0
   16.9283   -8.6950    0.0000 C    0  0  0  0  0  0  0  0  0  0  0  0
   14.3122   -8.2249    0.0000 C    0  0  0  0  0  0  0  0  0  0  0  0
   16.4759   -7.4446    0.0000 C    0  0  0  0  0  0  0  0  0  0  0  0
   15.1636   -7.2052    0.0000 C    0  0  0  0  0  0  0  0  0  0  0  0
  1  2  1  0  0  0  0
  1  3  1  0  0  0  0
  2  5  1  0  0  0  0
  3  4  2  0  0  0  0
  4  6  1  0  0  0  0
  5  7  2  0  0  0  0
  6  8  1  0  0  0  0
  7  8  1  0  0  0  0
  9 10  1  0  0  0  0
  2  9  1  0  0  0  0
  9 11  1  0  0  0  0
  9 12  1  0  0  0  0
 11 13  1  0  0  0  0
 11 14  1  0  0  0  0
 12 15  1  0  0  0  0
 12 16  1  0  0  0  0
 17 18  1  0  0  0  0
 17 19  2  0  0  0  0
 18 20  2  0  0  0  0
 19 21  1  0  0  0  0
 20 22  1  0  0  0  0
 21 22  2  0  0  0  0
 12 17  1  0  0  0  0
 23 24  1  0  0  0  0
 23 25  2  0  0  0  0
 24 26  2  0  0  0  0
 25 27  1  0  0  0  0
 26 28  1  0  0  0  0
 27 28  2  0  0  0  0
 11 23  1  0  0  0  0
M  END
> <NMREDATA_VERSION>
1.1

> <NMREDATA_LEVEL>
0

> <NMREDATA_SOLVENT>
CD2Cl2

> <NMREDATA_TEMPERATURE>
255

> <NMREDATA_FORMULA>
C25H38P2Rh

> <NMREDATA_SMILES>
C[Rh](P(c1ccccc1)(C)C)(P(c1ccccc1)(C)C)C1C=CCCC=CC1

> <NMREDATA_ASSIGNMENT>
Rh9, -278.00, 9

> <NMREDATA_1D_103Rh>
-278.00, L=Rh9

$$$$
