
  ACD/LABS03282419412D

 56 63  0  0  0  0  0  0  0  0  1 V2000
   11.9267   -7.2484    0.0000 C    0  0  0  0  0  0  0  0  0  0  0  0
   13.0786   -6.5836    0.0000 C    0  0  0  0  0  0  0  0  0  0  0  0
   11.9267   -8.5775    0.0000 C    0  0  0  0  0  0  0  0  0  0  0  0
   14.2310   -7.2484    0.0000 C    0  0  0  0  0  0  0  0  0  0  0  0
   13.0786   -9.2423    0.0000 C    0  0  0  0  0  0  0  0  0  0  0  0
   14.2310   -8.5775    0.0000 N    0  0  0  0  0  0  0  0  0  0  0  0
   15.0198  -14.9496    0.0000 C    0  0  0  0  0  0  0  0  0  0  0  0
   14.0005  -15.8008    0.0000 C    0  0  0  0  0  0  0  0  0  0  0  0
   14.7893  -13.6379    0.0000 C    0  0  0  0  0  0  0  0  0  0  0  0
   12.7508  -15.3398    0.0000 C    0  0  0  0  0  0  0  0  0  0  0  0
   13.5396  -13.1774    0.0000 C    0  0  0  0  0  0  0  0  0  0  0  0
   12.5203  -14.0369    0.0000 C    0  0  0  0  0  0  0  0  0  0  0  0
   10.3487  -14.1608    0.0000 C    0  0  0  0  0  0  0  0  0  0  0  0
    9.0995  -14.6130    0.0000 C    0  0  0  0  0  0  0  0  0  0  0  0
   10.5884  -12.8491    0.0000 C    0  0  0  0  0  0  0  0  0  0  0  0
    8.0802  -13.7531    0.0000 C    0  0  0  0  0  0  0  0  0  0  0  0
    9.5691  -11.9984    0.0000 C    0  0  0  0  0  0  0  0  0  0  0  0
    8.3194  -12.4414    0.0000 C    0  0  0  0  0  0  0  0  0  0  0  0
   15.4624  -12.6632    0.0000 C    0  0  0  0  0  0  0  0  0  0  0  0
   16.7741  -12.4327    0.0000 C    0  0  0  0  0  0  0  0  0  0  0  0
   14.6208  -11.6531    0.0000 C    0  0  0  0  0  0  0  0  0  0  0  0
   17.2263  -11.1922    0.0000 C    0  0  0  0  0  0  0  0  0  0  0  0
   15.0639  -10.4034    0.0000 C    0  0  0  0  0  0  0  0  0  0  0  0
   16.3755  -10.1729    0.0000 C    0  0  0  0  0  0  0  0  0  0  0  0
   19.5485  -14.0369    0.0000 C    0  0  0  0  0  0  0  0  0  0  0  0
   20.5677  -13.1861    0.0000 C    0  0  0  0  0  0  0  0  0  0  0  0
   19.7790  -15.3486    0.0000 C    0  0  0  0  0  0  0  0  0  0  0  0
   21.8174  -13.6379    0.0000 C    0  0  0  0  0  0  0  0  0  0  0  0
   21.0282  -15.8008    0.0000 C    0  0  0  0  0  0  0  0  0  0  0  0
   22.0475  -14.9496    0.0000 C    0  0  0  0  0  0  0  0  0  0  0  0
   16.5349  -15.0561    0.0000 C    0  0  0  0  0  0  0  0  0  0  0  0
   17.8466  -14.8256    0.0000 C    0  0  0  0  0  0  0  0  0  0  0  0
   16.0739  -16.3058    0.0000 C    0  0  0  0  0  0  0  0  0  0  0  0
   18.6973  -15.8449    0.0000 C    0  0  0  0  0  0  0  0  0  0  0  0
   16.9338  -17.3250    0.0000 C    0  0  0  0  0  0  0  0  0  0  0  0
   18.2368  -17.0946    0.0000 C    0  0  0  0  0  0  0  0  0  0  0  0
   21.0640   -9.3929    0.0000 C    0  0  0  0  0  0  0  0  0  0  0  0
   20.6031  -10.6426    0.0000 C    0  0  0  0  0  0  0  0  0  0  0  0
   20.2129   -8.3737    0.0000 C    0  0  0  0  0  0  0  0  0  0  0  0
   19.3001  -10.8644    0.0000 C    0  0  0  0  0  0  0  0  0  0  0  0
   18.9012   -8.5954    0.0000 C    0  0  0  0  0  0  0  0  0  0  0  0
   18.4406   -9.8451    0.0000 C    0  0  0  0  0  0  0  0  0  0  0  0
   13.0786  -10.5719    0.0000 Rh   0  0  0  0  0  0  0  0  0  0  0  0
   11.9267   -9.9071    0.0000 H    0  0  0  0  0  0  0  0  0  0  0  0
   14.2310   -9.9071    0.0000 H    0  0  0  0  0  0  0  0  0  0  0  0
   13.3091  -11.8836    0.0000 P    0  0  0  0  0  0  0  0  0  0  0  0
   18.2988  -13.5759    0.0000 P    0  0  0  0  0  0  0  0  0  0  0  0
   11.8381  -11.0328    0.0000 C    0  0  0  0  0  0  0  0  0  0  0  0
   10.6857  -10.3681    0.0000 O    0  0  0  0  0  0  0  0  0  0  0  0
   11.1733  -12.1756    0.0000 O    0  0  0  0  0  0  0  0  0  0  0  0
   10.6853   -9.0381    0.0000 C    0  0  0  0  0  0  0  0  0  0  0  0
    9.5332   -8.3734    0.0000 C    0  0  0  0  0  0  0  0  0  0  0  0
   11.8369   -8.3726    0.0000 C    0  0  0  0  0  0  0  0  0  0  0  0
    9.5328   -7.0433    0.0000 C    0  0  0  0  0  0  0  0  0  0  0  0
   11.8365   -7.0426    0.0000 C    0  0  0  0  0  0  0  0  0  0  0  0
   10.6844   -6.3780    0.0000 C    0  0  0  0  0  0  0  0  0  0  0  0
  1  2  1  0  0  0  0
  1  3  2  0  0  0  0
  2  4  2  0  0  0  0
  3  5  1  0  0  0  0
  4  6  1  0  0  0  0
  5  6  2  0  0  0  0
  7  8  1  0  0  0  0
  7  9  2  0  0  0  0
  8 10  2  0  0  0  0
  9 11  1  0  0  0  0
 10 12  1  0  0  0  0
 11 12  2  0  0  0  0
 13 14  1  0  0  0  0
 13 15  2  0  0  0  0
 14 16  2  0  0  0  0
 15 17  1  0  0  0  0
 16 18  1  0  0  0  0
 17 18  2  0  0  0  0
 19 20  1  0  0  0  0
 19 21  2  0  0  0  0
 20 22  2  0  0  0  0
 21 23  1  0  0  0  0
 22 24  1  0  0  0  0
 23 24  2  0  0  0  0
 25 26  1  0  0  0  0
 25 27  2  0  0  0  0
 26 28  2  0  0  0  0
 27 29  1  0  0  0  0
 28 30  1  0  0  0  0
 29 30  2  0  0  0  0
 31 32  1  0  0  0  0
 31 33  2  0  0  0  0
 32 34  2  0  0  0  0
 33 35  1  0  0  0  0
 34 36  1  0  0  0  0
 35 36  2  0  0  0  0
 37 38  1  0  0  0  0
 37 39  2  0  0  0  0
 38 40  2  0  0  0  0
 39 41  1  0  0  0  0
 40 42  1  0  0  0  0
 41 42  2  0  0  0  0
 43 44  1  0  0  0  0
 43 45  1  0  0  0  0
 43 46  1  0  0  0  0
 43 47  1  0  0  0  0
 40 47  1  0  0  0  0
 32 47  1  0  0  0  0
 25 47  1  0  0  0  0
 21 46  1  0  0  0  0
 15 46  1  0  0  0  0
 11 46  1  0  0  0  0
  5 43  1  0  0  0  0
 43 48  1  0  0  0  0
 48 49  1  0  0  0  0
 48 50  2  0  0  0  0
 51 52  1  0  0  0  0
 51 53  2  0  0  0  0
 52 54  2  0  0  0  0
 53 55  1  0  0  0  0
 54 56  1  0  0  0  0
 55 56  2  0  0  0  0
 49 51  1  0  0  0  0
M  END
> <NMREDATA_VERSION>
1.1

> <NMREDATA_LEVEL>
0

> <NMREDATA_SOLVENT>
toluene-d8

> <NMREDATA_TEMPERATURE>
248

> <NMREDATA_FORMULA>
C48H43NO2P2Rh

> <NMREDATA_SMILES>
O=C([RhH2](P(c1ccccc1)(c1ccccc1)c1ccccc1)(P(c1ccccc1)(c1ccccc1)c1ccccc1)c1ccccn1)Oc1ccccc1

> <NMREDATA_ASSIGNMENT>
Rh43, 688.00, 43

> <NMREDATA_1D_103Rh>
688.00, L=Rh43

$$$$
