
  ACD/LABS02072411482D

 16 15  0  0  0  0  0  0  0  0  2 V2000
   20.5910  -21.5688    0.0000 Rh   0  5  0  0  0  0  0  0  0  0  0  0
   21.7287  -19.5983    0.0000 Cl   0  0  0  0  0  0  0  0  0  0  0  0
   21.7287  -23.5394    0.0000 C    0  0  0  0  0  0  0  0  0  0  0  0
   24.0041  -23.5394    0.0000 C    0  0  0  0  0  0  0  0  0  0  0  0
   25.1418  -25.5100    0.0000 C    0  0  0  0  0  0  0  0  0  0  0  0
   23.1712  -26.6477    0.0000 C    0  0  0  0  0  0  0  0  0  0  0  0
   27.1124  -24.3723    0.0000 C    0  0  0  0  0  0  0  0  0  0  0  0
   26.2795  -27.4806    0.0000 C    0  0  0  0  0  0  0  0  0  0  0  0
   28.5549  -27.4806    0.0000 N    0  0  0  0  0  0  0  0  0  0  0  0
   29.6927  -25.5100    0.0000 C    0  0  0  0  0  0  0  0  0  0  0  0
   29.6927  -29.4511    0.0000 C    0  0  0  0  0  0  0  0  0  0  0  0
   25.1418  -21.5688    0.0000 N    0  3  0  0  0  0  0  0  0  0  0  0
   26.2795  -19.5983    0.0000 C    0  0  0  0  0  0  0  0  0  0  0  0
   27.4172  -17.6277    0.0000 C    0  0  0  0  0  0  0  0  0  0  0  0
   18.3155  -21.5688    0.0000 C    0  0  0  0  0  0  0  0  0  0  0  0
   17.1778  -23.5394    0.0000 C    0  0  0  0  0  0  0  0  0  0  0  0
  1  2  1  0  0  0  0
  1  3  1  0  0  0  0
  3  4  1  0  0  0  0
  4  5  1  0  0  0  0
  5  6  1  0  0  0  0
  5  7  1  0  0  0  0
  5  8  1  0  0  0  0
  8  9  1  0  0  0  0
  9 10  1  0  0  0  0
  9 11  1  0  0  0  0
  4 12  1  0  0  0  0
 12 13  3  0  0  0  0
 13 14  1  0  0  0  0
  1 15  2  0  0  0  0
 15 16  1  0  0  0  0
M  END
> <NMREDATA_VERSION>
1.1

> <NMREDATA_LEVEL>
0

> <NMREDATA_SOLVENT>
DCCl3

> <NMREDATA_TEMPERATURE>
298

> <NMREDATA_FORMULA>
C12H25ClN2Rh

> <NMREDATA_SMILES>
CC#NC(C(CN(C)C)(C)C)C/[Rh](=C\C)/Cl

> <NMREDATA_ASSIGNMENT>
Rh1, 652.00, 1

> <NMREDATA_1D_103Rh>
652.00, L=Rh1

$$$$
