
  ACD/LABS03152413232D

 90100  0  0  0  0  0  0  0  0  2 V2000
   13.4131  -12.3320    0.0000 Rh   0  3  0  0  0  0  0  0  0  0  0  0
   14.6352  -11.6264    0.0000 P    0  0  0  0  0  0  0  0  0  0  0  0
   15.8492  -10.9154    0.0000 C    0  0  0  0  0  0  0  0  0  0  0  0
   17.0750  -11.6124    0.0000 C    0  0  0  0  0  0  0  0  0  0  0  0
   18.2887  -10.9019    0.0000 P    0  0  0  0  0  0  0  0  0  0  0  0
   15.3458  -12.8400    0.0000 C    0  0  0  0  0  0  0  0  0  0  0  0
   14.6536  -14.0573    0.0000 C    0  0  0  0  0  0  0  0  0  0  0  0
   16.7490  -12.8354    0.0000 C    0  0  0  0  0  0  0  0  0  0  0  0
   15.3600  -15.2793    0.0000 C    0  0  0  0  0  0  0  0  0  0  0  0
   17.4680  -14.0540    0.0000 C    0  0  0  0  0  0  0  0  0  0  0  0
   16.7755  -15.2718    0.0000 C    0  0  0  0  0  0  0  0  0  0  0  0
   13.9163  -10.4078    0.0000 C    0  0  0  0  0  0  0  0  0  0  0  0
   14.6216   -9.1861    0.0000 C    0  0  0  0  0  0  0  0  0  0  0  0
   12.5172  -10.4248    0.0000 C    0  0  0  0  0  0  0  0  0  0  0  0
   13.9116   -7.9727    0.0000 C    0  0  0  0  0  0  0  0  0  0  0  0
   11.8113   -9.2031    0.0000 C    0  0  0  0  0  0  0  0  0  0  0  0
   12.5083   -7.9773    0.0000 C    0  0  0  0  0  0  0  0  0  0  0  0
   18.2892   -9.4910    0.0000 C    0  0  0  0  0  0  0  0  0  0  0  0
   17.0629   -8.7936    0.0000 C    0  0  0  0  0  0  0  0  0  0  0  0
   19.5031   -8.7800    0.0000 C    0  0  0  0  0  0  0  0  0  0  0  0
   17.0508   -7.3861    0.0000 C    0  0  0  0  0  0  0  0  0  0  0  0
   19.4951   -7.3641    0.0000 C    0  0  0  0  0  0  0  0  0  0  0  0
   18.2694   -6.6671    0.0000 C    0  0  0  0  0  0  0  0  0  0  0  0
   19.5145  -11.5990    0.0000 C    0  0  0  0  0  0  0  0  0  0  0  0
   20.7369  -10.8929    0.0000 C    0  0  0  0  0  0  0  0  0  0  0  0
   19.5225  -13.0148    0.0000 C    0  0  0  0  0  0  0  0  0  0  0  0
   21.9627  -11.5899    0.0000 C    0  0  0  0  0  0  0  0  0  0  0  0
   20.7487  -13.7122    0.0000 C    0  0  0  0  0  0  0  0  0  0  0  0
   21.9668  -12.9929    0.0000 C    0  0  0  0  0  0  0  0  0  0  0  0
    9.2901   -7.5525    0.0000 C    0  0  0  0  0  0  0  0  0  0  0  0
   10.0094   -8.7706    0.0000 C    0  0  0  0  0  0  0  0  0  0  0  0
    9.7743   -6.2251    0.0000 As   0  0  0  0  0  0  0  0  0  0  0  0
   11.1584   -5.9711    0.0000 C    0  0  0  0  0  0  0  0  0  0  0  0
   12.0671   -7.0490    0.0000 C    0  0  0  0  0  0  0  0  0  0  0  0
   11.6379   -4.6517    0.0000 C    0  0  0  0  0  0  0  0  0  0  0  0
   13.4597   -6.7999    0.0000 C    0  0  0  0  0  0  0  0  0  0  0  0
   13.0220   -4.3977    0.0000 C    0  0  0  0  0  0  0  0  0  0  0  0
   13.9305   -5.4761    0.0000 C    0  0  0  0  0  0  0  0  0  0  0  0
    8.8658   -5.1467    0.0000 C    0  0  0  0  0  0  0  0  0  0  0  0
    9.3373   -3.8227    0.0000 C    0  0  0  0  0  0  0  0  0  0  0  0
    7.4737   -5.3961    0.0000 C    0  0  0  0  0  0  0  0  0  0  0  0
    8.4286   -2.7449    0.0000 C    0  0  0  0  0  0  0  0  0  0  0  0
    6.5652   -4.3178    0.0000 C    0  0  0  0  0  0  0  0  0  0  0  0
    7.0360   -2.9939    0.0000 C    0  0  0  0  0  0  0  0  0  0  0  0
    9.3041   -9.9923    0.0000 P    0  0  0  0  0  0  0  0  0  0  0  0
    9.3224  -12.4232    0.0000 C    0  0  0  0  0  0  0  0  0  0  0  0
    8.6119  -11.2096    0.0000 C    0  0  0  0  0  0  0  0  0  0  0  0
    8.6251  -13.6495    0.0000 C    0  0  0  0  0  0  0  0  0  0  0  0
    7.2041  -11.2222    0.0000 C    0  0  0  0  0  0  0  0  0  0  0  0
    7.2175  -13.6616    0.0000 C    0  0  0  0  0  0  0  0  0  0  0  0
    6.4990  -12.4433    0.0000 C    0  0  0  0  0  0  0  0  0  0  0  0
    5.6300   -7.8930    0.0000 C    0  0  0  0  0  0  0  0  0  0  0  0
    5.6429   -9.3004    0.0000 C    0  0  0  0  0  0  0  0  0  0  0  0
    6.8520   -7.1866    0.0000 C    0  0  0  0  0  0  0  0  0  0  0  0
    6.8690   -9.9969    0.0000 C    0  0  0  0  0  0  0  0  0  0  0  0
    8.0783   -7.8840    0.0000 C    0  0  0  0  0  0  0  0  0  0  0  0
    8.0778   -9.2949    0.0000 C    0  0  0  0  0  0  0  0  0  0  0  0
   14.6827  -17.5050    0.0000 C    0  0  0  0  0  0  0  0  0  0  0  0
   14.6621  -16.0926    0.0000 C    0  0  0  0  0  0  0  0  0  0  0  0
   15.7703  -18.4045    0.0000 As   0  0  0  0  0  0  0  0  0  0  0  0
   17.0939  -17.8980    0.0000 C    0  0  0  0  0  0  0  0  0  0  0  0
   17.3206  -16.5091    0.0000 C    0  0  0  0  0  0  0  0  0  0  0  0
   18.1815  -18.7975    0.0000 C    0  0  0  0  0  0  0  0  0  0  0  0
   18.6393  -16.0110    0.0000 C    0  0  0  0  0  0  0  0  0  0  0  0
   19.5007  -18.2997    0.0000 C    0  0  0  0  0  0  0  0  0  0  0  0
   19.7318  -16.9021    0.0000 C    0  0  0  0  0  0  0  0  0  0  0  0
   15.5436  -19.7934    0.0000 C    0  0  0  0  0  0  0  0  0  0  0  0
   16.6361  -20.6844    0.0000 C    0  0  0  0  0  0  0  0  0  0  0  0
   14.2249  -20.2915    0.0000 C    0  0  0  0  0  0  0  0  0  0  0  0
   16.4091  -22.0738    0.0000 C    0  0  0  0  0  0  0  0  0  0  0  0
   13.9982  -21.6803    0.0000 C    0  0  0  0  0  0  0  0  0  0  0  0
   15.0858  -22.5798    0.0000 C    0  0  0  0  0  0  0  0  0  0  0  0
   13.4317  -15.4035    0.0000 P    0  0  0  0  0  0  0  0  0  0  0  0
   12.1930  -13.2991    0.0000 C    0  0  0  0  0  0  0  0  0  0  0  0
   12.2052  -14.7066    0.0000 C    0  0  0  0  0  0  0  0  0  0  0  0
   10.9706  -12.6146    0.0000 C    0  0  0  0  0  0  0  0  0  0  0  0
   10.9949  -15.4298    0.0000 C    0  0  0  0  0  0  0  0  0  0  0  0
    9.7521  -13.3336    0.0000 C    0  0  0  0  0  0  0  0  0  0  0  0
    9.7727  -14.7461    0.0000 C    0  0  0  0  0  0  0  0  0  0  0  0
   11.3565  -19.0914    0.0000 C    0  0  0  0  0  0  0  0  0  0  0  0
   10.6380  -17.8731    0.0000 C    0  0  0  0  0  0  0  0  0  0  0  0
   12.7689  -19.0708    0.0000 C    0  0  0  0  0  0  0  0  0  0  0  0
   11.3348  -16.6465    0.0000 C    0  0  0  0  0  0  0  0  0  0  0  0
   13.4660  -17.8450    0.0000 C    0  0  0  0  0  0  0  0  0  0  0  0
   12.7424  -16.6344    0.0000 C    0  0  0  0  0  0  0  0  0  0  0  0
   27.8980   -7.7156    0.0000 Cl   0  0  0  0  0  0  0  0  0  0  0  0
   28.6351   -6.4389    0.0000 O    0  0  0  0  0  0  0  0  0  0  0  0
   26.6213   -6.9785    0.0000 O    0  0  0  0  0  0  0  0  0  0  0  0
   29.1747   -8.4527    0.0000 O    0  0  0  0  0  0  0  0  0  0  0  0
   27.1609   -8.9923    0.0000 O    0  5  0  0  0  0  0  0  0  0  0  0
  2  3  1  0  0  0  0
  3  4  1  0  0  0  0
  4  5  1  0  0  0  0
  6  7  1  0  0  0  0
  6  8  2  0  0  0  0
  7  9  2  0  0  0  0
  8 10  1  0  0  0  0
  9 11  1  0  0  0  0
 10 11  2  0  0  0  0
  2  6  1  0  0  0  0
 12 13  1  0  0  0  0
 12 14  2  0  0  0  0
 13 15  2  0  0  0  0
 14 16  1  0  0  0  0
 15 17  1  0  0  0  0
 16 17  2  0  0  0  0
  2 12  1  0  0  0  0
 18 19  1  0  0  0  0
 18 20  2  0  0  0  0
 19 21  2  0  0  0  0
 20 22  1  0  0  0  0
 21 23  1  0  0  0  0
 22 23  2  0  0  0  0
  5 18  1  0  0  0  0
 24 25  1  0  0  0  0
 24 26  2  0  0  0  0
 25 27  2  0  0  0  0
 26 28  1  0  0  0  0
 27 29  1  0  0  0  0
 28 29  2  0  0  0  0
  5 24  1  0  0  0  0
  1  2  1  0  0  0  0
 30 31  2  0  0  0  0
 30 32  1  0  0  0  0
 33 34  1  0  0  0  0
 33 35  2  0  0  0  0
 34 36  2  0  0  0  0
 35 37  1  0  0  0  0
 36 38  1  0  0  0  0
 37 38  2  0  0  0  0
 32 33  1  0  0  0  0
 39 40  1  0  0  0  0
 39 41  2  0  0  0  0
 40 42  2  0  0  0  0
 41 43  1  0  0  0  0
 42 44  1  0  0  0  0
 43 44  2  0  0  0  0
 32 39  1  0  0  0  0
 31 45  1  0  0  0  0
 46 47  1  0  0  0  0
 46 48  2  0  0  0  0
 47 49  2  0  0  0  0
 48 50  1  0  0  0  0
 49 51  1  0  0  0  0
 50 51  2  0  0  0  0
 45 47  1  0  0  0  0
 52 53  1  0  0  0  0
 52 54  2  0  0  0  0
 53 55  2  0  0  0  0
 54 56  1  0  0  0  0
 55 57  1  0  0  0  0
 56 57  2  0  0  0  0
 45 57  1  0  0  0  0
  1 45  1  0  0  0  0
 58 59  2  0  0  0  0
 58 60  1  0  0  0  0
 61 62  1  0  0  0  0
 61 63  2  0  0  0  0
 62 64  2  0  0  0  0
 63 65  1  0  0  0  0
 64 66  1  0  0  0  0
 65 66  2  0  0  0  0
 60 61  1  0  0  0  0
 67 68  1  0  0  0  0
 67 69  2  0  0  0  0
 68 70  2  0  0  0  0
 69 71  1  0  0  0  0
 70 72  1  0  0  0  0
 71 72  2  0  0  0  0
 60 67  1  0  0  0  0
 59 73  1  0  0  0  0
 74 75  1  0  0  0  0
 74 76  2  0  0  0  0
 75 77  2  0  0  0  0
 76 78  1  0  0  0  0
 77 79  1  0  0  0  0
 78 79  2  0  0  0  0
 73 75  1  0  0  0  0
 80 81  1  0  0  0  0
 80 82  2  0  0  0  0
 81 83  2  0  0  0  0
 82 84  1  0  0  0  0
 83 85  1  0  0  0  0
 84 85  2  0  0  0  0
 73 85  1  0  0  0  0
  1 73  1  0  0  0  0
 86 87  2  0  0  0  0
 86 88  2  0  0  0  0
 86 89  2  0  0  0  0
 86 90  1  0  0  0  0
M  END
> <NMREDATA_VERSION>
1.1

> <NMREDATA_LEVEL>
0

> <NMREDATA_SOLVENT>
CD2Cl2

> <NMREDATA_TEMPERATURE>
298

> <NMREDATA_FORMULA>
C78H72As2ClO4P4Rh

> <NMREDATA_SMILES>
c1ccc(cc1)P(c1ccccc1)CCP([Rh](P(c1ccccc1)(c1ccccc1)/C=C/[As](c1ccccc1)c1ccccc1)P(c1ccccc1)(c1ccccc1)/C=C/[As](c1ccccc1)c1ccccc1)(c1ccccc1)c1ccccc1.O[Cl](=O)(=O)=O

> <NMREDATA_ASSIGNMENT>
Rh1, 1187.00, 1

> <NMREDATA_1D_103Rh>
1187.00, L=Rh1

$$$$
