
  ACD/LABS03262411322D

 50 54  0  0  0  0  0  0  0  0  2 V2000
   27.0327   -7.3150    0.0000 B    0  5  0  0  0  0  0  0  0  0  0  0
   25.8670   -6.6420    0.0000 F    0  0  0  0  0  0  0  0  0  0  0  0
   27.7057   -6.1493    0.0000 F    0  0  0  0  0  0  0  0  0  0  0  0
   26.3596   -8.4807    0.0000 F    0  0  0  0  0  0  0  0  0  0  0  0
   28.1984   -7.9880    0.0000 F    0  0  0  0  0  0  0  0  0  0  0  0
   15.4179  -12.1141    0.0000 C    0  0  0  0  0  0  0  0  0  0  0  0
   16.3079  -11.1257    0.0000 N    0  0  0  0  0  0  0  0  0  0  0  0
   16.0829  -13.2659    0.0000 C    0  0  0  0  0  0  0  0  0  0  0  0
   17.5229  -11.6666    0.0000 C    0  0  0  0  0  0  0  0  0  0  0  0
   17.3839  -12.9894    0.0000 N    0  0  0  0  0  0  0  0  0  0  0  0
   14.0879  -12.1141    0.0000 C    0  0  0  0  0  0  0  0  0  0  0  0
   13.4229  -13.2659    0.0000 C    0  0  0  0  0  0  0  0  0  0  0  0
   15.4179  -14.4177    0.0000 C    0  0  0  0  0  0  0  0  0  0  0  0
   14.0879  -14.4177    0.0000 C    0  0  0  0  0  0  0  0  0  0  0  0
   11.9982   -8.3269    0.0000 C    0  0  0  0  0  0  0  0  0  0  0  0
   10.6972   -8.6034    0.0000 C    0  0  0  0  0  0  0  0  0  0  0  0
   12.4092   -7.0620    0.0000 C    0  0  0  0  0  0  0  0  0  0  0  0
    9.8073   -7.6151    0.0000 C    0  0  0  0  0  0  0  0  0  0  0  0
   11.5192   -6.0736    0.0000 C    0  0  0  0  0  0  0  0  0  0  0  0
   10.2183   -6.3502    0.0000 C    0  0  0  0  0  0  0  0  0  0  0  0
   10.6348   -9.7943    0.0000 C    0  0  0  0  0  0  0  0  0  0  0  0
   11.8997  -10.2053    0.0000 C    0  0  0  0  0  0  0  0  0  0  0  0
    9.6464  -10.6842    0.0000 C    0  0  0  0  0  0  0  0  0  0  0  0
   12.1762  -11.5062    0.0000 C    0  0  0  0  0  0  0  0  0  0  0  0
    9.9230  -11.9851    0.0000 C    0  0  0  0  0  0  0  0  0  0  0  0
   11.1879  -12.3961    0.0000 C    0  0  0  0  0  0  0  0  0  0  0  0
   15.1414   -8.8364    0.0000 C    0  0  0  0  0  0  0  0  0  0  0  0
   13.8765   -8.4254    0.0000 C    0  0  0  0  0  0  0  0  0  0  0  0
   16.1298   -7.9464    0.0000 C    0  0  0  0  0  0  0  0  0  0  0  0
   13.6000   -7.1244    0.0000 C    0  0  0  0  0  0  0  0  0  0  0  0
   15.8533   -6.6455    0.0000 C    0  0  0  0  0  0  0  0  0  0  0  0
   14.5884   -6.2345    0.0000 C    0  0  0  0  0  0  0  0  0  0  0  0
   13.7781  -10.3037    0.0000 Rh   0  2  0  0  0  0  0  0  0  0  0  0
   14.6680  -11.2921    0.0000 H    0  0  0  0  0  0  0  0  0  0  0  0
   14.7664   -9.4137    0.0000 C    0  0  0  0  0  0  0  0  0  0  0  0
   13.9369   -5.5109    0.0000 C    0  0  0  0  0  0  0  0  0  0  0  0
   15.2018   -5.9219    0.0000 C    0  0  0  0  0  0  0  0  0  0  0  0
   12.9485   -6.4009    0.0000 C    0  0  0  0  0  0  0  0  0  0  0  0
   15.4783   -7.2229    0.0000 C    0  0  0  0  0  0  0  0  0  0  0  0
   13.2250   -7.7018    0.0000 C    0  0  0  0  0  0  0  0  0  0  0  0
   14.4899   -8.1128    0.0000 C    0  0  0  0  0  0  0  0  0  0  0  0
   16.0313   -9.8247    0.0000 N    0  0  0  0  0  0  0  0  0  0  0  0
   12.8881   -9.3153    0.0000 P    0  0  0  0  0  0  0  0  0  0  0  0
   12.7897  -11.1936    0.0000 Cl   0  0  0  0  0  0  0  0  0  0  0  0
   16.1902   -5.0320    0.0000 N    0  3  0  0  0  0  0  0  0  0  0  0
   17.4551   -5.4430    0.0000 O    0  5  0  0  0  0  0  0  0  0  0  0
   15.9136   -3.7311    0.0000 O    0  0  0  0  0  0  0  0  0  0  0  0
    9.3283   -5.3618    0.0000 F    0  0  0  0  0  0  0  0  0  0  0  0
   16.8416   -5.7555    0.0000 F    0  0  0  0  0  0  0  0  0  0  0  0
    8.9346  -12.8751    0.0000 F    0  0  0  0  0  0  0  0  0  0  0  0
  1  2  1  0  0  0  0
  1  3  1  0  0  0  0
  1  4  1  0  0  0  0
  1  5  1  0  0  0  0
  6  7  1  0  0  0  0
  7  9  1  0  0  0  0
  8 10  1  0  0  0  0
  9 10  2  0  0  0  0
  6 11  1  0  0  0  0
  6  8  2  0  0  0  0
 11 12  2  0  0  0  0
  8 13  1  0  0  0  0
 12 14  1  0  0  0  0
 13 14  2  0  0  0  0
 15 16  1  0  0  0  0
 15 17  2  0  0  0  0
 16 18  2  0  0  0  0
 17 19  1  0  0  0  0
 18 20  1  0  0  0  0
 19 20  2  0  0  0  0
 21 22  1  0  0  0  0
 21 23  2  0  0  0  0
 22 24  2  0  0  0  0
 23 25  1  0  0  0  0
 24 26  1  0  0  0  0
 25 26  2  0  0  0  0
 27 28  1  0  0  0  0
 27 29  2  0  0  0  0
 28 30  2  0  0  0  0
 29 31  1  0  0  0  0
 30 32  1  0  0  0  0
 31 32  2  0  0  0  0
 33 34  1  0  0  0  0
 33 35  1  0  0  0  0
 36 37  1  0  0  0  0
 36 38  2  0  0  0  0
 37 39  2  0  0  0  0
 38 40  1  0  0  0  0
 39 41  1  0  0  0  0
 40 41  2  0  0  0  0
 35 41  1  0  0  0  0
 35 42  2  0  0  0  0
 33 43  1  0  0  0  0
 28 43  1  0  0  0  0
 22 43  1  0  0  0  0
 15 43  1  0  0  0  0
 33 44  1  0  0  0  0
 45 46  1  0  0  0  0
 45 47  2  0  0  0  0
 37 45  1  0  0  0  0
  7 42  1  0  0  0  0
 20 48  1  0  0  0  0
 31 49  1  0  0  0  0
 25 50  1  0  0  0  0
M  END
> <NMREDATA_VERSION>
1.1

> <NMREDATA_LEVEL>
0

> <NMREDATA_SOLVENT>
DCCl3

> <NMREDATA_TEMPERATURE>
298

> <NMREDATA_FORMULA>
C32H25BClF7N4O2PRh

> <NMREDATA_SMILES>
F[B](F)(F)F.Fc1ccc(cc1)P([RhH](/C(=N\n1cnc2c1cccc2)/c1cccc(c1)N(=O)O)Cl)(c1ccc(cc1)F)c1ccc(cc1)F

> <NMREDATA_ASSIGNMENT>
Rh33, 997.00, 33

> <NMREDATA_1D_103Rh>
997.00, L=Rh33

$$$$
