
  ACD/LABS03222419162D

 22 21  0  0  0  0  0  0  0  0  1 V2000
   17.9638   -2.4668    0.0000 O    0  0  0  0  0  0  0  0  0  0  0  0
   18.6048   -3.5769    0.0000 N    0  0  0  0  0  0  0  0  0  0  0  0
   17.9638   -4.6871    0.0000 C    0  0  0  0  0  0  0  0  0  0  0  0
   16.6819   -4.6871    0.0000 C    0  0  0  0  0  0  0  0  0  0  0  0
   18.6048   -5.7973    0.0000 C    0  0  0  0  0  0  0  0  0  0  0  0
   19.8867   -5.7973    0.0000 C    0  0  0  0  0  0  0  0  0  0  0  0
   17.9638   -6.9075    0.0000 N    0  0  0  0  0  0  0  0  0  0  0  0
   18.6048   -8.0177    0.0000 O    0  0  0  0  0  0  0  0  0  0  0  0
   12.1952  -12.4584    0.0000 O    0  0  0  0  0  0  0  0  0  0  0  0
   13.4771  -12.4584    0.0000 N    0  0  0  0  0  0  0  0  0  0  0  0
   14.1180  -11.3482    0.0000 C    0  0  0  0  0  0  0  0  0  0  0  0
   13.4771  -10.2380    0.0000 C    0  0  0  0  0  0  0  0  0  0  0  0
   15.4000  -11.3482    0.0000 C    0  0  0  0  0  0  0  0  0  0  0  0
   16.0409  -12.4584    0.0000 C    0  0  0  0  0  0  0  0  0  0  0  0
   16.0409  -10.2380    0.0000 N    0  0  0  0  0  0  0  0  0  0  0  0
   17.3229  -10.2380    0.0000 O    0  0  0  0  0  0  0  0  0  0  0  0
   17.9638   -9.1278    0.0000 Rh   0  0  0  0  0  0  0  0  0  0  0  0
   19.0740   -9.7688    0.0000 P    0  0  0  0  0  0  0  0  0  0  0  0
   19.7150   -8.6586    0.0000 C    0  0  0  0  0  0  0  0  0  0  0  0
   16.8536   -8.4869    0.0000 C    0  0  0  0  0  0  0  0  0  0  0  0
   18.4330  -10.8790    0.0000 C    0  0  0  0  0  0  0  0  0  0  0  0
   20.1842  -10.4098    0.0000 C    0  0  0  0  0  0  0  0  0  0  0  0
  1  2  1  0  0  0  0
  2  3  2  0  0  0  0
  3  4  1  0  0  0  0
  3  5  1  0  0  0  0
  5  6  1  0  0  0  0
  5  7  2  0  0  0  0
  7  8  1  0  0  0  0
  9 10  1  0  0  0  0
 10 11  2  0  0  0  0
 11 12  1  0  0  0  0
 11 13  1  0  0  0  0
 13 14  1  0  0  0  0
 13 15  2  0  0  0  0
 15 16  1  0  0  0  0
 16 17  1  0  0  0  0
  8 17  1  0  0  0  0
 17 18  1  0  0  0  0
 18 19  1  0  0  0  0
 17 20  1  0  0  0  0
 18 21  1  0  0  0  0
 18 22  1  0  0  0  0
M  END
> <NMREDATA_VERSION>
1.1

> <NMREDATA_LEVEL>
0

> <NMREDATA_SOLVENT>
DCCl3

> <NMREDATA_TEMPERATURE>
298

> <NMREDATA_FORMULA>
C12H27N4O4PRh

> <NMREDATA_SMILES>
O/N=C(/C(=N/O[Rh](P(C)(C)C)(O/N=C(/C(=N/O)/C)\C)C)/C)\C

> <NMREDATA_ASSIGNMENT>
Rh17, 1927.00, 17

> <NMREDATA_1D_103Rh>
1927.00, L=Rh17

$$$$
