
  ACD/LABS02122411112D

 14 13  0  0  0  0  0  0  0  0  1 V2000
   19.0068   -6.6366    0.0000 Rh   0  0  0  0  0  0  0  0  0  0  0  0
   21.8571   -6.1394    0.0000 C    0  0  0  0  0  0  0  0  0  0  0  0
   22.3100   -4.8963    0.0000 C    0  0  0  0  0  0  0  0  0  0  0  0
   23.6241   -4.6657    0.0000 C    0  0  0  0  0  0  0  0  0  0  0  0
   24.4765   -5.6866    0.0000 C    0  0  0  0  0  0  0  0  0  0  0  0
   22.7096   -7.1608    0.0000 O    0  0  0  0  0  0  0  0  0  0  0  0
   24.0859   -3.4224    0.0000 O    0  0  0  0  0  0  0  0  0  0  0  0
   19.1395   -5.4968    0.0000 C    0  0  0  0  0  0  0  0  0  0  0  0
   19.5490   -4.8825    0.0000 C    0  0  0  0  0  0  0  0  0  0  0  0
   17.9620   -7.6161    0.0000 C    0  0  0  0  0  0  0  0  0  0  0  0
   16.0680   -7.5444    0.0000 C    0  0  0  0  0  0  0  0  0  0  0  0
   18.7299   -8.2611    0.0000 C    0  0  0  0  0  0  0  0  0  0  0  0
   15.3001   -8.4147    0.0000 C    0  0  0  0  0  0  0  0  0  0  0  0
   15.7403   -6.7561    0.0000 H    0  0  0  0  0  0  0  0  0  0  0  0
  1  2  1  0  0  0  0
  2  3  1  0  0  0  0
  3  4  1  0  0  0  0
  4  5  1  0  0  0  0
  2  6  2  0  0  0  0
  4  7  2  0  0  0  0
  1  8  2  0  0  0  0
  8  9  1  0  0  0  0
  1 10  1  0  0  0  0
 10 11  2  0  0  0  0
 10 12  1  0  0  0  0
 11 13  1  0  0  0  0
 11 14  1  0  0  0  0
M  END
> <NMREDATA_VERSION>
1.1

> <NMREDATA_LEVEL>
0

> <NMREDATA_SOLVENT>
DCCl3

> <NMREDATA_TEMPERATURE>
270

> <NMREDATA_FORMULA>
C10H16O2Rh

> <NMREDATA_SMILES>
C/C=C(/[Rh](=C/C)/C(=O)CC(=O)C)\C

> <NMREDATA_ASSIGNMENT>
Rh1, 1353.00, 1

> <NMREDATA_1D_103Rh>
1353.00, L=Rh1

$$$$
