
  ACD/LABS03292412342D

 57 64  0  0  0  0  0  0  0  0  1 V2000
   12.6671  -19.9422    0.0000 C    0  0  0  0  0  0  0  0  0  0  0  0
   13.7794  -20.6769    0.0000 C    0  0  0  0  0  0  0  0  0  0  0  0
   12.7546  -18.6203    0.0000 C    0  0  0  0  0  0  0  0  0  0  0  0
   14.9669  -20.0923    0.0000 C    0  0  0  0  0  0  0  0  0  0  0  0
   13.9389  -18.0237    0.0000 C    0  0  0  0  0  0  0  0  0  0  0  0
   15.0507  -18.7581    0.0000 C    0  0  0  0  0  0  0  0  0  0  0  0
   12.4298  -13.7729    0.0000 C    0  0  0  0  0  0  0  0  0  0  0  0
   11.1329  -13.4642    0.0000 C    0  0  0  0  0  0  0  0  0  0  0  0
   12.7981  -15.0507    0.0000 C    0  0  0  0  0  0  0  0  0  0  0  0
   10.2166  -14.4307    0.0000 C    0  0  0  0  0  0  0  0  0  0  0  0
   11.8865  -16.0092    0.0000 C    0  0  0  0  0  0  0  0  0  0  0  0
   10.5894  -15.7009    0.0000 C    0  0  0  0  0  0  0  0  0  0  0  0
   15.5880  -11.8687    0.0000 C    0  0  0  0  0  0  0  0  0  0  0  0
   15.8963  -10.5716    0.0000 C    0  0  0  0  0  0  0  0  0  0  0  0
   14.3058  -12.2447    0.0000 C    0  0  0  0  0  0  0  0  0  0  0  0
   14.9298   -9.6553    0.0000 C    0  0  0  0  0  0  0  0  0  0  0  0
   13.3395  -11.3280    0.0000 C    0  0  0  0  0  0  0  0  0  0  0  0
   13.6552  -10.0357    0.0000 C    0  0  0  0  0  0  0  0  0  0  0  0
   11.9991  -17.8361    0.0000 C    0  0  0  0  0  0  0  0  0  0  0  0
   11.7459  -19.1440    0.0000 C    0  0  0  0  0  0  0  0  0  0  0  0
   10.9984  -16.9613    0.0000 C    0  0  0  0  0  0  0  0  0  0  0  0
   10.4843  -19.5728    0.0000 C    0  0  0  0  0  0  0  0  0  0  0  0
    9.7448  -17.3948    0.0000 C    0  0  0  0  0  0  0  0  0  0  0  0
    9.4835  -18.6980    0.0000 C    0  0  0  0  0  0  0  0  0  0  0  0
   17.6696  -18.4981    0.0000 C    0  0  0  0  0  0  0  0  0  0  0  0
   16.3537  -18.7013    0.0000 C    0  0  0  0  0  0  0  0  0  0  0  0
   18.4933  -19.5369    0.0000 C    0  0  0  0  0  0  0  0  0  0  0  0
   15.8665  -19.9355    0.0000 C    0  0  0  0  0  0  0  0  0  0  0  0
   18.0136  -20.7759    0.0000 C    0  0  0  0  0  0  0  0  0  0  0  0
   16.6979  -20.9787    0.0000 C    0  0  0  0  0  0  0  0  0  0  0  0
    9.7809  -11.7620    0.0000 C    0  0  0  0  0  0  0  0  0  0  0  0
   10.4178  -12.9287    0.0000 C    0  0  0  0  0  0  0  0  0  0  0  0
   10.4692  -10.6230    0.0000 C    0  0  0  0  0  0  0  0  0  0  0  0
   11.7479  -12.9488    0.0000 C    0  0  0  0  0  0  0  0  0  0  0  0
   11.7902  -10.6589    0.0000 C    0  0  0  0  0  0  0  0  0  0  0  0
   12.4366  -11.8100    0.0000 C    0  0  0  0  0  0  0  0  0  0  0  0
   15.4214  -15.4382    0.0000 Rh   0  0  0  0  0  0  0  0  0  0  0  0
   15.5403  -14.1140    0.0000 H    0  0  0  0  0  0  0  0  0  0  0  0
   16.0918  -16.5832    0.0000 H    0  0  0  0  0  0  0  0  0  0  0  0
   14.1323  -15.1346    0.0000 P    0  0  0  0  0  0  0  0  0  0  0  0
   14.5385  -16.4343    0.0000 P    0  0  0  0  0  0  0  0  0  0  0  0
   16.7142  -15.1501    0.0000 O    0  0  0  0  0  0  0  0  0  0  0  0
   17.1079  -13.8830    0.0000 C    0  0  0  0  0  0  0  0  0  0  0  0
   16.2089  -12.9029    0.0000 O    0  0  0  0  0  0  0  0  0  0  0  0
   18.8071  -12.3237    0.0000 C    0  0  0  0  0  0  0  0  0  0  0  0
   17.9034  -11.3516    0.0000 O    0  0  0  0  0  0  0  0  0  0  0  0
   18.4085  -13.5993    0.0000 O    0  0  0  0  0  0  0  0  0  0  0  0
   20.0997  -12.0360    0.0000 C    0  0  0  0  0  0  0  0  0  0  0  0
   20.5060  -10.7648    0.0000 N    0  0  0  0  0  0  0  0  0  0  0  0
   20.9986  -13.0154    0.0000 C    0  0  0  0  0  0  0  0  0  0  0  0
   21.7989  -10.4767    0.0000 C    0  0  0  0  0  0  0  0  0  0  0  0
   22.3035  -12.7241    0.0000 N    0  0  0  0  0  0  0  0  0  0  0  0
   22.6975  -11.4565    0.0000 C    0  0  0  0  0  0  0  0  0  0  0  0
   22.1927   -9.2085    0.0000 C    0  0  0  0  0  0  0  0  0  0  0  0
   23.4978   -8.9178    0.0000 C    0  0  0  0  0  0  0  0  0  0  0  0
   23.9947  -11.1608    0.0000 C    0  0  0  0  0  0  0  0  0  0  0  0
   24.3966   -9.8972    0.0000 C    0  0  0  0  0  0  0  0  0  0  0  0
  1  2  1  0  0  0  0
  1  3  2  0  0  0  0
  2  4  2  0  0  0  0
  3  5  1  0  0  0  0
  4  6  1  0  0  0  0
  5  6  2  0  0  0  0
  7  8  1  0  0  0  0
  7  9  2  0  0  0  0
  8 10  2  0  0  0  0
  9 11  1  0  0  0  0
 10 12  1  0  0  0  0
 11 12  2  0  0  0  0
 13 14  1  0  0  0  0
 13 15  2  0  0  0  0
 14 16  2  0  0  0  0
 15 17  1  0  0  0  0
 16 18  1  0  0  0  0
 17 18  2  0  0  0  0
 19 20  1  0  0  0  0
 19 21  2  0  0  0  0
 20 22  2  0  0  0  0
 21 23  1  0  0  0  0
 22 24  1  0  0  0  0
 23 24  2  0  0  0  0
 25 26  1  0  0  0  0
 25 27  2  0  0  0  0
 26 28  2  0  0  0  0
 27 29  1  0  0  0  0
 28 30  1  0  0  0  0
 29 30  2  0  0  0  0
 31 32  1  0  0  0  0
 31 33  2  0  0  0  0
 32 34  2  0  0  0  0
 33 35  1  0  0  0  0
 34 36  1  0  0  0  0
 35 36  2  0  0  0  0
 37 38  1  0  0  0  0
 37 39  1  0  0  0  0
 37 40  1  0  0  0  0
 37 41  1  0  0  0  0
 34 41  1  0  0  0  0
 26 41  1  0  0  0  0
 19 41  1  0  0  0  0
 15 40  1  0  0  0  0
  9 40  1  0  0  0  0
  5 40  1  0  0  0  0
 37 42  1  0  0  0  0
 42 43  1  0  0  0  0
 43 44  2  0  0  0  0
 45 46  2  0  0  0  0
 45 47  1  0  0  0  0
 48 49  1  0  0  0  0
 48 50  2  0  0  0  0
 49 51  2  0  0  0  0
 50 52  1  0  0  0  0
 52 53  2  0  0  0  0
 45 48  1  0  0  0  0
 51 54  1  0  0  0  0
 51 53  1  0  0  0  0
 54 55  2  0  0  0  0
 53 56  1  0  0  0  0
 55 57  1  0  0  0  0
 56 57  2  0  0  0  0
 43 47  1  0  0  0  0
M  END
> <NMREDATA_VERSION>
1.1

> <NMREDATA_LEVEL>
0

> <NMREDATA_SOLVENT>
DCCl3

> <NMREDATA_TEMPERATURE>
300

> <NMREDATA_FORMULA>
C46H39N2O4P2Rh

> <NMREDATA_SMILES>
O=C(O[RhH2](P(c1ccccc1)(c1ccccc1)c1ccccc1)P(c1ccccc1)(c1ccccc1)c1ccccc1)OC(=O)c1cnc2c(n1)cccc2

> <NMREDATA_ASSIGNMENT>
Rh37, 436.00, 37

> <NMREDATA_1D_103Rh>
436.00, L=Rh37

$$$$
