
  ACD/LABS03282419242D

 24 25  0  0  0  0  0  0  0  0  1 V2000
   18.5889   -6.9337    0.0000 C    0  0  0  0  0  0  0  0  0  0  0  0
   18.5885   -5.6028    0.0000 C    0  0  0  0  0  0  0  0  0  0  0  0
   17.4371   -7.5987    0.0000 C    0  0  0  0  0  0  0  0  0  0  0  0
   17.4452   -4.9529    0.0000 C    0  0  0  0  0  0  0  0  0  0  0  0
   16.2927   -6.9283    0.0000 C    0  0  0  0  0  0  0  0  0  0  0  0
   16.2934   -5.6179    0.0000 C    0  0  0  0  0  0  0  0  0  0  0  0
   10.5430   -8.9379    0.0000 C    0  0  0  0  0  0  0  0  0  0  0  0
    9.3912   -9.6029    0.0000 C    0  0  0  0  0  0  0  0  0  0  0  0
   11.6860   -9.5880    0.0000 C    0  0  0  0  0  0  0  0  0  0  0  0
    9.3901  -10.9135    0.0000 C    0  0  0  0  0  0  0  0  0  0  0  0
   11.6944  -10.9143    0.0000 C    0  0  0  0  0  0  0  0  0  0  0  0
   10.5426  -11.5793    0.0000 C    0  0  0  0  0  0  0  0  0  0  0  0
   13.9893   -8.2582    0.0000 Rh   0  0  0  0  0  0  0  0  0  0  0  0
   15.1415   -8.9241    0.0000 Cl   0  0  0  0  0  0  0  0  0  0  0  0
   13.9901   -6.9477    0.0000 Cl   0  0  0  0  0  0  0  0  0  0  0  0
   13.9977   -9.5844    0.0000 H    0  0  0  0  0  0  0  0  0  0  0  0
   15.1409   -7.5933    0.0000 P    0  0  0  0  0  0  0  0  0  0  0  0
   12.8378   -8.9230    0.0000 P    0  0  0  0  0  0  0  0  0  0  0  0
   12.9819   -7.4175    0.0000 C    0  0  0  0  0  0  0  0  0  0  0  0
   11.9575   -6.5652    0.0000 O    0  0  0  0  0  0  0  0  0  0  0  0
   13.3020  -10.1704    0.0000 C    0  0  0  0  0  0  0  0  0  0  0  0
   12.1775   -7.7792    0.0000 C    0  0  0  0  0  0  0  0  0  0  0  0
   14.6860   -6.3620    0.0000 C    0  0  0  0  0  0  0  0  0  0  0  0
   15.9891   -8.6191    0.0000 C    0  0  0  0  0  0  0  0  0  0  0  0
  1  2  1  0  0  0  0
  1  3  2  0  0  0  0
  2  4  2  0  0  0  0
  3  5  1  0  0  0  0
  4  6  1  0  0  0  0
  5  6  2  0  0  0  0
  7  8  1  0  0  0  0
  7  9  2  0  0  0  0
  8 10  2  0  0  0  0
  9 11  1  0  0  0  0
 10 12  1  0  0  0  0
 11 12  2  0  0  0  0
 13 14  1  0  0  0  0
 13 15  1  0  0  0  0
 13 16  1  0  0  0  0
 13 17  1  0  0  0  0
 13 18  1  0  0  0  0
 13 19  1  0  0  0  0
 19 20  3  0  0  0  0
 18 21  1  0  0  0  0
 18 22  1  0  0  0  0
 17 23  1  0  0  0  0
 17 24  1  0  0  0  0
  9 18  1  0  0  0  0
  5 17  1  0  0  0  0
M  END
> <NMREDATA_VERSION>
1.1

> <NMREDATA_LEVEL>
0

> <NMREDATA_SOLVENT>
C6D6

> <NMREDATA_TEMPERATURE>
297

> <NMREDATA_FORMULA>
C17H25Cl2OP2Rh

> <NMREDATA_SMILES>
[O]#C[RhH](P(c1ccccc1)(C)C)(P(c1ccccc1)(C)C)(Cl)Cl

> <NMREDATA_ASSIGNMENT>
Rh13, 239.00, 13

> <NMREDATA_1D_103Rh>
239.00, L=Rh13

$$$$
