
  ACD/LABS03222417422D

 55 63  0  0  0  0  0  0  0  0  1 V2000
   15.7182  -11.8133    0.0000 C    0  0  0  0  0  0  0  0  0  0  0  0
   16.8885  -12.4480    0.0000 C    0  0  0  0  0  0  0  0  0  0  0  0
   14.5794  -12.5079    0.0000 C    0  0  0  0  0  0  0  0  0  0  0  0
   16.9200  -13.7772    0.0000 C    0  0  0  0  0  0  0  0  0  0  0  0
   14.6231  -13.8345    0.0000 C    0  0  0  0  0  0  0  0  0  0  0  0
   15.7934  -14.4692    0.0000 C    0  0  0  0  0  0  0  0  0  0  0  0
   11.4071  -12.8385    0.0000 C    0  0  0  0  0  0  0  0  0  0  0  0
   10.1027  -13.1101    0.0000 C    0  0  0  0  0  0  0  0  0  0  0  0
   12.2928  -13.8417    0.0000 C    0  0  0  0  0  0  0  0  0  0  0  0
    9.6810  -14.3725    0.0000 C    0  0  0  0  0  0  0  0  0  0  0  0
   11.8635  -15.0997    0.0000 C    0  0  0  0  0  0  0  0  0  0  0  0
   10.5639  -15.3639    0.0000 C    0  0  0  0  0  0  0  0  0  0  0  0
   10.8076   -4.1529    0.0000 C    0  0  0  0  0  0  0  0  0  0  0  0
    9.8721   -5.0984    0.0000 C    0  0  0  0  0  0  0  0  0  0  0  0
   10.4435   -2.8669    0.0000 C    0  0  0  0  0  0  0  0  0  0  0  0
    8.5880   -4.7669    0.0000 C    0  0  0  0  0  0  0  0  0  0  0  0
    9.1596   -2.5350    0.0000 C    0  0  0  0  0  0  0  0  0  0  0  0
    8.2320   -3.4851    0.0000 C    0  0  0  0  0  0  0  0  0  0  0  0
    6.2560  -10.3153    0.0000 C    0  0  0  0  0  0  0  0  0  0  0  0
    7.5376   -9.9588    0.0000 C    0  0  0  0  0  0  0  0  0  0  0  0
    5.3058   -9.3878    0.0000 C    0  0  0  0  0  0  0  0  0  0  0  0
    7.8655   -8.6625    0.0000 C    0  0  0  0  0  0  0  0  0  0  0  0
    5.6340   -8.0911    0.0000 C    0  0  0  0  0  0  0  0  0  0  0  0
    6.9154   -7.7349    0.0000 C    0  0  0  0  0  0  0  0  0  0  0  0
   11.7389   -7.1184    0.0000 Rh   0  0  0  0  0  0  0  0  0  0  0  0
   12.6740   -6.1726    0.0000 B    0  0  0  0  0  0  0  0  0  0  0  0
   14.2898   -8.2531    0.0000 N    0  0  0  0  0  0  0  0  0  0  0  0
   15.4782   -8.8573    0.0000 C    0  0  0  0  0  0  0  0  0  0  0  0
   13.3501   -9.2068    0.0000 N    0  0  0  0  0  0  0  0  0  0  0  0
   15.2719  -10.1727    0.0000 C    0  0  0  0  0  0  0  0  0  0  0  0
   13.9637  -10.3798    0.0000 C    0  0  0  0  0  0  0  0  0  0  0  0
    9.0746   -5.8058    0.0000 N    0  0  0  0  0  0  0  0  0  0  0  0
    9.0786   -7.1293    0.0000 N    0  0  0  0  0  0  0  0  0  0  0  0
    7.8028   -5.3994    0.0000 C    0  0  0  0  0  0  0  0  0  0  0  0
    7.8211   -7.5509    0.0000 C    0  0  0  0  0  0  0  0  0  0  0  0
    7.0314   -6.4700    0.0000 C    0  0  0  0  0  0  0  0  0  0  0  0
   13.1398   -4.3720    0.0000 N    0  0  0  0  0  0  0  0  0  0  0  0
   11.8037   -4.3794    0.0000 N    0  0  0  0  0  0  0  0  0  0  0  0
   13.5416   -3.1082    0.0000 C    0  0  0  0  0  0  0  0  0  0  0  0
   11.3867   -3.1139    0.0000 C    0  0  0  0  0  0  0  0  0  0  0  0
   12.4632   -2.3318    0.0000 C    0  0  0  0  0  0  0  0  0  0  0  0
    7.0108   -8.5996    0.0000 C    0  0  0  0  0  0  0  0  0  0  0  0
    5.7029   -6.4818    0.0000 Cl   0  0  0  0  0  0  0  0  0  0  0  0
    7.3858   -4.1340    0.0000 C    0  0  0  0  0  0  0  0  0  0  0  0
   14.8070   -2.6912    0.0000 C    0  0  0  0  0  0  0  0  0  0  0  0
   10.6708   -1.9937    0.0000 C    0  0  0  0  0  0  0  0  0  0  0  0
   16.6639   -8.2409    0.0000 C    0  0  0  0  0  0  0  0  0  0  0  0
   13.3720  -11.5649    0.0000 C    0  0  0  0  0  0  0  0  0  0  0  0
   16.2222  -11.0998    0.0000 Cl   0  0  0  0  0  0  0  0  0  0  0  0
    8.8096  -10.4882    0.0000 C    0  0  0  0  0  0  0  0  0  0  0  0
    8.5410  -11.7879    0.0000 O    0  0  0  0  0  0  0  0  0  0  0  0
   10.6590   -7.8880    0.0000 P    0  0  0  0  0  0  0  0  0  0  0  0
   11.8366  -11.5801    0.0000 P    0  0  0  0  0  0  0  0  0  0  0  0
   11.0156   -9.1696    0.0000 C    0  0  0  0  0  0  0  0  0  0  0  0
   10.4988  -11.6072    0.0000 C    0  0  0  0  0  0  0  0  0  0  0  0
  1  2  1  0  0  0  0
  1  3  2  0  0  0  0
  2  4  2  0  0  0  0
  3  5  1  0  0  0  0
  4  6  1  0  0  0  0
  5  6  2  0  0  0  0
  7  8  1  0  0  0  0
  7  9  2  0  0  0  0
  8 10  2  0  0  0  0
  9 11  1  0  0  0  0
 10 12  1  0  0  0  0
 11 12  2  0  0  0  0
 13 14  1  0  0  0  0
 13 15  2  0  0  0  0
 14 16  2  0  0  0  0
 15 17  1  0  0  0  0
 16 18  1  0  0  0  0
 17 18  2  0  0  0  0
 19 20  1  0  0  0  0
 19 21  2  0  0  0  0
 20 22  2  0  0  0  0
 21 23  1  0  0  0  0
 22 24  1  0  0  0  0
 23 24  2  0  0  0  0
 27 28  1  0  0  0  0
 27 29  1  0  0  0  0
 28 30  2  0  0  0  0
 29 31  2  0  0  0  0
 30 31  1  0  0  0  0
 26 27  1  0  0  0  0
 32 33  1  0  0  0  0
 32 34  1  0  0  0  0
 33 35  2  0  0  0  0
 34 36  2  0  0  0  0
 35 36  1  0  0  0  0
 26 32  1  0  0  0  0
 37 38  1  0  0  0  0
 37 39  1  0  0  0  0
 38 40  2  0  0  0  0
 39 41  2  0  0  0  0
 40 41  1  0  0  0  0
 26 37  1  0  0  0  0
 25 33  1  0  0  0  0
 25 38  1  0  0  0  0
 25 29  1  0  0  0  0
 35 42  1  0  0  0  0
 36 43  1  0  0  0  0
 34 44  1  0  0  0  0
 39 45  1  0  0  0  0
 40 46  1  0  0  0  0
 28 47  1  0  0  0  0
 31 48  1  0  0  0  0
 30 49  1  0  0  0  0
 25 50  1  0  0  0  0
 50 51  3  0  0  0  0
 25 52  1  0  0  0  0
 25 53  1  0  0  0  0
 52 54  1  0  0  0  0
 53 55  1  0  0  0  0
 22 52  1  0  0  0  0
 14 52  1  0  0  0  0
  7 53  1  0  0  0  0
  3 53  1  0  0  0  0
M  END
> <NMREDATA_VERSION>
1.1

> <NMREDATA_LEVEL>
0

> <NMREDATA_SOLVENT>
CD2Cl2

> <NMREDATA_TEMPERATURE>
233

> <NMREDATA_FORMULA>
C42H50BCl2N6OP2Rh

> <NMREDATA_SMILES>
[O]#C[Rh]12(N3=C(C)C=C(N3B(N3N1=C(C)C(=C3C)Cl)N1N2=C(C)C(=C1C)Cl)C)(P(c1ccccc1)(c1ccccc1)C)P(c1ccccc1)(c1ccccc1)C

> <NMREDATA_ASSIGNMENT>
Rh25, 344.00, 25

> <NMREDATA_1D_103Rh>
344.00, L=Rh25

$$$$
