
  ACD/LABS02122415312D

 47 54  0  0  0  0  0  0  0  0  1 V2000
   14.9620   -8.4027    0.0000 Rh   0  0  0  0  0  0  0  0  0  0  0  0
   19.7691  -11.1781    0.0000 C    0  0  0  0  0  0  0  0  0  0  0  0
   19.7651   -9.8551    0.0000 C    0  0  0  0  0  0  0  0  0  0  0  0
   18.6214  -11.8361    0.0000 C    0  0  0  0  0  0  0  0  0  0  0  0
   18.6133   -9.1901    0.0000 C    0  0  0  0  0  0  0  0  0  0  0  0
   17.4696  -11.1711    0.0000 C    0  0  0  0  0  0  0  0  0  0  0  0
   17.4651   -9.8479    0.0000 C    0  0  0  0  0  0  0  0  0  0  0  0
   18.6135   -7.8589    0.0000 C    0  0  0  0  0  0  0  0  0  0  0  0
   16.3168  -11.8369    0.0000 C    0  0  0  0  0  0  0  0  0  0  0  0
   19.7660   -7.1935    0.0000 P    0  0  0  0  0  0  0  0  0  0  0  0
   16.3168  -13.1677    0.0000 P    0  0  0  0  0  0  0  0  0  0  0  0
   20.9178   -7.8585    0.0000 N    0  0  0  0  0  0  0  0  0  0  0  0
   22.1347   -7.3116    0.0000 C    0  0  0  0  0  0  0  0  0  0  0  0
   21.0572   -9.1778    0.0000 C    0  0  0  0  0  0  0  0  0  0  0  0
   23.0244   -8.3064    0.0000 C    0  0  0  0  0  0  0  0  0  0  0  0
   22.3592   -9.4586    0.0000 C    0  0  0  0  0  0  0  0  0  0  0  0
   19.7662   -5.8623    0.0000 N    0  0  0  0  0  0  0  0  0  0  0  0
   18.6929   -5.0789    0.0000 C    0  0  0  0  0  0  0  0  0  0  0  0
   20.8424   -5.0807    0.0000 C    0  0  0  0  0  0  0  0  0  0  0  0
   19.1147   -3.8172    0.0000 C    0  0  0  0  0  0  0  0  0  0  0  0
   20.4379   -3.8128    0.0000 C    0  0  0  0  0  0  0  0  0  0  0  0
   17.4686  -13.8327    0.0000 N    0  0  0  0  0  0  0  0  0  0  0  0
   18.6809  -13.2938    0.0000 C    0  0  0  0  0  0  0  0  0  0  0  0
   17.6111  -15.1644    0.0000 C    0  0  0  0  0  0  0  0  0  0  0  0
   19.5750  -14.2809    0.0000 C    0  0  0  0  0  0  0  0  0  0  0  0
   18.9098  -15.4331    0.0000 C    0  0  0  0  0  0  0  0  0  0  0  0
   15.1641  -13.8335    0.0000 N    0  0  0  0  0  0  0  0  0  0  0  0
   15.0253  -15.1563    0.0000 C    0  0  0  0  0  0  0  0  0  0  0  0
   13.9490  -13.2957    0.0000 C    0  0  0  0  0  0  0  0  0  0  0  0
   13.7250  -15.4400    0.0000 C    0  0  0  0  0  0  0  0  0  0  0  0
   13.0672  -14.2918    0.0000 C    0  0  0  0  0  0  0  0  0  0  0  0
   13.7150   -8.8600    0.0000 P    0  0  0  0  0  0  0  0  0  0  0  0
   14.1727  -10.1072    0.0000 N    0  0  0  0  0  0  0  0  0  0  0  0
   13.4351  -11.2069    0.0000 C    0  0  0  0  0  0  0  0  0  0  0  0
   15.4577  -10.4703    0.0000 C    0  0  0  0  0  0  0  0  0  0  0  0
   14.2542  -12.2535    0.0000 C    0  0  0  0  0  0  0  0  0  0  0  0
   15.4934  -11.7912    0.0000 C    0  0  0  0  0  0  0  0  0  0  0  0
   13.2618   -7.6052    0.0000 N    0  0  0  0  0  0  0  0  0  0  0  0
   13.9948   -6.5135    0.0000 C    0  0  0  0  0  0  0  0  0  0  0  0
   11.9844   -7.2466    0.0000 C    0  0  0  0  0  0  0  0  0  0  0  0
   13.1757   -5.4669    0.0000 C    0  0  0  0  0  0  0  0  0  0  0  0
   11.9284   -5.9246    0.0000 C    0  0  0  0  0  0  0  0  0  0  0  0
   12.4678   -9.3177    0.0000 N    0  0  0  0  0  0  0  0  0  0  0  0
   11.3645   -8.5678    0.0000 C    0  0  0  0  0  0  0  0  0  0  0  0
   12.1014  -10.5910    0.0000 C    0  0  0  0  0  0  0  0  0  0  0  0
   10.3140   -9.3948    0.0000 C    0  0  0  0  0  0  0  0  0  0  0  0
   10.7712  -10.6418    0.0000 C    0  0  0  0  0  0  0  0  0  0  0  0
  2  3  1  0  0  0  0
  2  4  2  0  0  0  0
  3  5  2  0  0  0  0
  4  6  1  0  0  0  0
  5  7  1  0  0  0  0
  6  7  2  0  0  0  0
  1  7  1  0  0  0  0
  5  8  1  0  0  0  0
  6  9  1  0  0  0  0
  8 10  1  0  0  0  0
  9 11  1  0  0  0  0
 12 13  1  0  0  0  0
 12 14  1  0  0  0  0
 13 15  2  0  0  0  0
 14 16  2  0  0  0  0
 15 16  1  0  0  0  0
 10 12  1  0  0  0  0
 17 18  1  0  0  0  0
 17 19  1  0  0  0  0
 18 20  2  0  0  0  0
 19 21  2  0  0  0  0
 20 21  1  0  0  0  0
 10 17  1  0  0  0  0
 22 23  1  0  0  0  0
 22 24  1  0  0  0  0
 23 25  2  0  0  0  0
 24 26  2  0  0  0  0
 25 26  1  0  0  0  0
 11 22  1  0  0  0  0
 27 28  1  0  0  0  0
 27 29  1  0  0  0  0
 28 30  2  0  0  0  0
 29 31  2  0  0  0  0
 30 31  1  0  0  0  0
 11 27  1  0  0  0  0
  1 32  1  0  0  0  0
 33 34  1  0  0  0  0
 33 35  1  0  0  0  0
 34 36  2  0  0  0  0
 35 37  2  0  0  0  0
 36 37  1  0  0  0  0
 32 33  1  0  0  0  0
 38 39  1  0  0  0  0
 38 40  1  0  0  0  0
 39 41  2  0  0  0  0
 40 42  2  0  0  0  0
 41 42  1  0  0  0  0
 32 38  1  0  0  0  0
 43 44  1  0  0  0  0
 43 45  1  0  0  0  0
 44 46  2  0  0  0  0
 45 47  2  0  0  0  0
 46 47  1  0  0  0  0
 32 43  1  0  0  0  0
M  END
> <NMREDATA_VERSION>
1.1

> <NMREDATA_LEVEL>
0

> <NMREDATA_SOLVENT>
toluene-d8

> <NMREDATA_TEMPERATURE>
295

> <NMREDATA_FORMULA>
C36H36N7P3Rh

> <NMREDATA_SMILES>
c1cc(CP(n2cccc2)n2cccc2)c(c(c1)CP(n1cccc1)n1cccc1)[Rh]P(n1cccc1)(n1cccc1)n1cccc1

> <NMREDATA_ASSIGNMENT>
Rh1, -854.00, 1

> <NMREDATA_1D_103Rh>
-854.00, L=Rh1

$$$$
