
  ACD/LABS03132411282D

 79 90  0  0  0  0  0  0  0  0  1 V2000
   24.1304  -14.0611    0.0000 C    0  0  0  0  0  0  0  0  0  0  0  0
   24.1304  -15.3911    0.0000 C    0  0  0  0  0  0  0  0  0  0  0  0
   22.9785  -13.3961    0.0000 C    0  0  0  0  0  0  0  0  0  0  0  0
   22.9785  -16.0562    0.0000 C    0  0  0  0  0  0  0  0  0  0  0  0
   21.8267  -14.0611    0.0000 C    0  0  0  0  0  0  0  0  0  0  0  0
   21.8267  -15.3911    0.0000 C    0  0  0  0  0  0  0  0  0  0  0  0
   24.3067  -11.0326    0.0000 C    0  0  0  0  0  0  0  0  0  0  0  0
   24.3067  -12.3626    0.0000 C    0  0  0  0  0  0  0  0  0  0  0  0
   23.1548  -10.3676    0.0000 C    0  0  0  0  0  0  0  0  0  0  0  0
   23.1548  -13.0276    0.0000 C    0  0  0  0  0  0  0  0  0  0  0  0
   22.0030  -11.0326    0.0000 C    0  0  0  0  0  0  0  0  0  0  0  0
   22.0030  -12.3626    0.0000 C    0  0  0  0  0  0  0  0  0  0  0  0
   21.5185   -9.3020    0.0000 C    0  0  0  0  0  0  0  0  0  0  0  0
   21.5185  -10.6320    0.0000 C    0  0  0  0  0  0  0  0  0  0  0  0
   20.3666   -8.6370    0.0000 C    0  0  0  0  0  0  0  0  0  0  0  0
   20.3666  -11.2970    0.0000 C    0  0  0  0  0  0  0  0  0  0  0  0
   19.2148   -9.3020    0.0000 C    0  0  0  0  0  0  0  0  0  0  0  0
   19.2148  -10.6320    0.0000 C    0  0  0  0  0  0  0  0  0  0  0  0
   20.6039  -14.8659    0.0000 C    0  0  0  0  0  0  0  0  0  0  0  0
   20.6043  -16.1965    0.0000 C    0  0  0  0  0  0  0  0  0  0  0  0
   19.4515  -14.1999    0.0000 C    0  0  0  0  0  0  0  0  0  0  0  0
   19.4522  -16.8617    0.0000 C    0  0  0  0  0  0  0  0  0  0  0  0
   18.2994  -14.8650    0.0000 C    0  0  0  0  0  0  0  0  0  0  0  0
   18.3000  -16.1960    0.0000 C    0  0  0  0  0  0  0  0  0  0  0  0
   19.8090  -19.1644    0.0000 C    0  0  0  0  0  0  0  0  0  0  0  0
   19.1441  -18.0127    0.0000 C    0  0  0  0  0  0  0  0  0  0  0  0
   19.1432  -20.3172    0.0000 C    0  0  0  0  0  0  0  0  0  0  0  0
   17.8129  -18.0130    0.0000 C    0  0  0  0  0  0  0  0  0  0  0  0
   17.8200  -20.3128    0.0000 C    0  0  0  0  0  0  0  0  0  0  0  0
   17.1550  -19.1611    0.0000 C    0  0  0  0  0  0  0  0  0  0  0  0
   15.9962  -17.5262    0.0000 C    0  0  0  0  0  0  0  0  0  0  0  0
   15.9962  -18.8570    0.0000 C    0  0  0  0  0  0  0  0  0  0  0  0
   14.8434  -16.8603    0.0000 C    0  0  0  0  0  0  0  0  0  0  0  0
   14.8525  -19.5173    0.0000 C    0  0  0  0  0  0  0  0  0  0  0  0
   13.6997  -17.5207    0.0000 C    0  0  0  0  0  0  0  0  0  0  0  0
   13.7003  -18.8517    0.0000 C    0  0  0  0  0  0  0  0  0  0  0  0
   17.1479  -16.8612    0.0000 P    0  0  0  0  0  0  0  0  0  0  0  0
    8.6173  -22.2676    0.0000 C    0  0  0  0  0  0  0  0  0  0  0  0
    9.8642  -22.7251    0.0000 C    0  0  0  0  0  0  0  0  0  0  0  0
    8.3833  -20.9585    0.0000 C    0  0  0  0  0  0  0  0  0  0  0  0
   10.8854  -21.8692    0.0000 C    0  0  0  0  0  0  0  0  0  0  0  0
    9.4049  -20.1024    0.0000 C    0  0  0  0  0  0  0  0  0  0  0  0
   10.6520  -20.5603    0.0000 C    0  0  0  0  0  0  0  0  0  0  0  0
   14.6907  -21.5255    0.0000 C    0  0  0  0  0  0  0  0  0  0  0  0
   13.8352  -20.5041    0.0000 C    0  0  0  0  0  0  0  0  0  0  0  0
   14.2334  -22.7728    0.0000 C    0  0  0  0  0  0  0  0  0  0  0  0
   12.5291  -20.7256    0.0000 C    0  0  0  0  0  0  0  0  0  0  0  0
   12.9200  -22.9985    0.0000 C    0  0  0  0  0  0  0  0  0  0  0  0
   12.0762  -21.9805    0.0000 C    0  0  0  0  0  0  0  0  0  0  0  0
   10.8221  -18.6906    0.0000 C    0  0  0  0  0  0  0  0  0  0  0  0
   11.2794  -17.4434    0.0000 C    0  0  0  0  0  0  0  0  0  0  0  0
    9.5084  -18.9166    0.0000 C    0  0  0  0  0  0  0  0  0  0  0  0
   10.4282  -16.4302    0.0000 C    0  0  0  0  0  0  0  0  0  0  0  0
    8.6616  -17.9110    0.0000 C    0  0  0  0  0  0  0  0  0  0  0  0
    9.1148  -16.6559    0.0000 C    0  0  0  0  0  0  0  0  0  0  0  0
   11.6776  -19.7121    0.0000 P    0  0  0  0  0  0  0  0  0  0  0  0
   10.8813   -9.3588    0.0000 C    0  0  0  0  0  0  0  0  0  0  0  0
   12.1826   -9.1298    0.0000 C    0  0  0  0  0  0  0  0  0  0  0  0
   10.4240  -10.6061    0.0000 C    0  0  0  0  0  0  0  0  0  0  0  0
   13.0387  -10.1514    0.0000 C    0  0  0  0  0  0  0  0  0  0  0  0
   11.2719  -11.6319    0.0000 C    0  0  0  0  0  0  0  0  0  0  0  0
   12.5812  -11.3983    0.0000 C    0  0  0  0  0  0  0  0  0  0  0  0
   10.1550  -13.6695    0.0000 C    0  0  0  0  0  0  0  0  0  0  0  0
   11.1766  -12.8135    0.0000 C    0  0  0  0  0  0  0  0  0  0  0  0
   10.3843  -14.9706    0.0000 C    0  0  0  0  0  0  0  0  0  0  0  0
   12.4155  -13.2756    0.0000 C    0  0  0  0  0  0  0  0  0  0  0  0
   11.6312  -15.4281    0.0000 C    0  0  0  0  0  0  0  0  0  0  0  0
   12.6491  -14.5849    0.0000 C    0  0  0  0  0  0  0  0  0  0  0  0
   14.4583  -11.5636    0.0000 C    0  0  0  0  0  0  0  0  0  0  0  0
   14.2249  -10.2547    0.0000 C    0  0  0  0  0  0  0  0  0  0  0  0
   15.7054  -12.0215    0.0000 C    0  0  0  0  0  0  0  0  0  0  0  0
   15.2505   -9.4065    0.0000 C    0  0  0  0  0  0  0  0  0  0  0  0
   16.7314  -11.1731    0.0000 C    0  0  0  0  0  0  0  0  0  0  0  0
   16.4980   -9.8641    0.0000 C    0  0  0  0  0  0  0  0  0  0  0  0
   16.3042  -15.8426    0.0000 Rh   0  0  0  0  0  0  0  0  0  0  0  0
   13.4371  -12.4195    0.0000 P    0  0  0  0  0  0  0  0  0  0  0  0
   17.3262  -14.9915    0.0000 N    0  0  0  0  0  0  0  0  0  0  0  0
   18.3481  -14.1403    0.0000 C    0  0  0  0  0  0  0  0  0  0  0  0
   20.2384  -12.5789    0.0000 B    0  0  0  0  0  0  0  0  0  0  0  0
  1  2  1  0  0  0  0
  1  3  2  0  0  0  0
  2  4  2  0  0  0  0
  3  5  1  0  0  0  0
  4  6  1  0  0  0  0
  5  6  2  0  0  0  0
  7  8  1  0  0  0  0
  7  9  2  0  0  0  0
  8 10  2  0  0  0  0
  9 11  1  0  0  0  0
 10 12  1  0  0  0  0
 11 12  2  0  0  0  0
 13 14  1  0  0  0  0
 13 15  2  0  0  0  0
 14 16  2  0  0  0  0
 15 17  1  0  0  0  0
 16 18  1  0  0  0  0
 17 18  2  0  0  0  0
 19 20  1  0  0  0  0
 19 21  2  0  0  0  0
 20 22  2  0  0  0  0
 21 23  1  0  0  0  0
 22 24  1  0  0  0  0
 23 24  2  0  0  0  0
 25 26  1  0  0  0  0
 25 27  2  0  0  0  0
 26 28  2  0  0  0  0
 27 29  1  0  0  0  0
 28 30  1  0  0  0  0
 29 30  2  0  0  0  0
 31 32  1  0  0  0  0
 31 33  2  0  0  0  0
 32 34  2  0  0  0  0
 33 35  1  0  0  0  0
 34 36  1  0  0  0  0
 35 36  2  0  0  0  0
 31 37  1  0  0  0  0
 28 37  1  0  0  0  0
 24 37  1  0  0  0  0
 38 39  1  0  0  0  0
 38 40  2  0  0  0  0
 39 41  2  0  0  0  0
 40 42  1  0  0  0  0
 41 43  1  0  0  0  0
 42 43  2  0  0  0  0
 44 45  1  0  0  0  0
 44 46  2  0  0  0  0
 45 47  2  0  0  0  0
 46 48  1  0  0  0  0
 47 49  1  0  0  0  0
 48 49  2  0  0  0  0
 50 51  1  0  0  0  0
 50 52  2  0  0  0  0
 51 53  2  0  0  0  0
 52 54  1  0  0  0  0
 53 55  1  0  0  0  0
 54 55  2  0  0  0  0
 50 56  1  0  0  0  0
 47 56  1  0  0  0  0
 43 56  1  0  0  0  0
 57 58  1  0  0  0  0
 57 59  2  0  0  0  0
 58 60  2  0  0  0  0
 59 61  1  0  0  0  0
 60 62  1  0  0  0  0
 61 62  2  0  0  0  0
 63 64  1  0  0  0  0
 63 65  2  0  0  0  0
 64 66  2  0  0  0  0
 65 67  1  0  0  0  0
 66 68  1  0  0  0  0
 67 68  2  0  0  0  0
 69 70  1  0  0  0  0
 69 71  2  0  0  0  0
 70 72  2  0  0  0  0
 71 73  1  0  0  0  0
 72 74  1  0  0  0  0
 73 74  2  0  0  0  0
 75 76  1  0  0  0  0
 69 76  1  0  0  0  0
 66 76  1  0  0  0  0
 62 76  1  0  0  0  0
 56 75  1  0  0  0  0
 37 75  1  0  0  0  0
 77 78  3  0  0  0  0
 75 77  1  0  0  0  0
 78 79  1  0  0  0  0
 16 79  1  0  0  0  0
 12 79  1  0  0  0  0
  5 79  1  0  0  0  0
M  END
> <NMREDATA_VERSION>
1.1

> <NMREDATA_LEVEL>
0

> <NMREDATA_SOLVENT>
DCCl3

> <NMREDATA_TEMPERATURE>
300

> <NMREDATA_FORMULA>
C73H64BNP3Rh

> <NMREDATA_SMILES>
c1ccc(cc1)[B](c1ccccc1)(c1ccccc1)C#N[Rh](P(c1ccccc1)(c1ccccc1)c1ccccc1)(P(c1ccccc1)(c1ccccc1)c1ccccc1)P(c1ccccc1)(c1ccccc1)c1ccccc1

> <NMREDATA_ASSIGNMENT>
Rh75, -98.00, 75

> <NMREDATA_1D_103Rh>
-98.00, L=Rh75

$$$$
