
  ACD/LABS03222417432D

 35 39  0  0  0  0  0  0  0  0  1 V2000
   11.7433   -5.8846    0.0000 C    0  0  0  0  0  0  0  0  0  0  0  0
    9.9977   -7.8783    0.0000 C    0  0  0  0  0  0  0  0  0  0  0  0
    8.8739   -6.6659    0.0000 C    0  0  0  0  0  0  0  0  0  0  0  0
    8.6454   -9.2802    0.0000 C    0  0  0  0  0  0  0  0  0  0  0  0
   11.8690   -7.7604    0.0000 Rh   0  0  0  0  0  0  0  0  0  0  0  0
   13.1878   -7.6409    0.0000 B    0  0  0  0  0  0  0  0  0  0  0  0
   12.6350   -5.0678    0.0000 N    0  0  0  0  0  0  0  0  0  0  0  0
   12.9434   -3.7704    0.0000 C    0  0  0  0  0  0  0  0  0  0  0  0
   11.3083   -5.1827    0.0000 N    0  0  0  0  0  0  0  0  0  0  0  0
   11.8040   -3.0816    0.0000 C    0  0  0  0  0  0  0  0  0  0  0  0
   10.7977   -3.9554    0.0000 C    0  0  0  0  0  0  0  0  0  0  0  0
   11.1715  -10.6359    0.0000 N    0  0  0  0  0  0  0  0  0  0  0  0
   10.1576   -9.7843    0.0000 N    0  0  0  0  0  0  0  0  0  0  0  0
   10.6642  -11.8696    0.0000 C    0  0  0  0  0  0  0  0  0  0  0  0
    9.0263  -10.4837    0.0000 C    0  0  0  0  0  0  0  0  0  0  0  0
    9.3466  -11.7751    0.0000 C    0  0  0  0  0  0  0  0  0  0  0  0
   14.8723   -8.4495    0.0000 N    0  0  0  0  0  0  0  0  0  0  0  0
   14.0129   -9.4594    0.0000 N    0  0  0  0  0  0  0  0  0  0  0  0
   16.1028   -8.9449    0.0000 C    0  0  0  0  0  0  0  0  0  0  0  0
   14.7166  -10.5826    0.0000 C    0  0  0  0  0  0  0  0  0  0  0  0
   16.0035  -10.2707    0.0000 C    0  0  0  0  0  0  0  0  0  0  0  0
    7.8004   -9.9805    0.0000 C    0  0  0  0  0  0  0  0  0  0  0  0
    8.4824  -12.7926    0.0000 Cl   0  0  0  0  0  0  0  0  0  0  0  0
   11.3637  -13.0009    0.0000 C    0  0  0  0  0  0  0  0  0  0  0  0
   17.2340   -8.2454    0.0000 C    0  0  0  0  0  0  0  0  0  0  0  0
   14.2172  -11.8208    0.0000 C    0  0  0  0  0  0  0  0  0  0  0  0
   14.1706   -3.2598    0.0000 C    0  0  0  0  0  0  0  0  0  0  0  0
    9.5003   -3.6470    0.0000 C    0  0  0  0  0  0  0  0  0  0  0  0
   11.6891   -1.7549    0.0000 Cl   0  0  0  0  0  0  0  0  0  0  0  0
   10.8716   -8.6188    0.0000 C    0  0  0  0  0  0  0  0  0  0  0  0
    9.6224   -9.0963    0.0000 O    0  0  0  0  0  0  0  0  0  0  0  0
    8.9891   -7.9928    0.0000 P    0  0  0  0  0  0  0  0  0  0  0  0
   10.8681   -6.8856    0.0000 P    0  0  0  0  0  0  0  0  0  0  0  0
    7.6623   -8.1080    0.0000 C    0  0  0  0  0  0  0  0  0  0  0  0
    9.8673   -6.0106    0.0000 C    0  0  0  0  0  0  0  0  0  0  0  0
  7  8  1  0  0  0  0
  7  9  1  0  0  0  0
  8 10  2  0  0  0  0
  9 11  2  0  0  0  0
 10 11  1  0  0  0  0
  6  7  1  0  0  0  0
 12 13  1  0  0  0  0
 12 14  1  0  0  0  0
 13 15  2  0  0  0  0
 14 16  2  0  0  0  0
 15 16  1  0  0  0  0
  6 12  1  0  0  0  0
 17 18  1  0  0  0  0
 17 19  1  0  0  0  0
 18 20  2  0  0  0  0
 19 21  2  0  0  0  0
 20 21  1  0  0  0  0
  6 17  1  0  0  0  0
  5 13  1  0  0  0  0
  5 18  1  0  0  0  0
  5  9  1  0  0  0  0
 15 22  1  0  0  0  0
 16 23  1  0  0  0  0
 14 24  1  0  0  0  0
 19 25  1  0  0  0  0
 20 26  1  0  0  0  0
  8 27  1  0  0  0  0
 11 28  1  0  0  0  0
 10 29  1  0  0  0  0
  5 30  1  0  0  0  0
 30 31  3  0  0  0  0
  5 32  1  0  0  0  0
  5 33  1  0  0  0  0
 32 34  1  0  0  0  0
 33 35  1  0  0  0  0
  4 32  1  0  0  0  0
  3 32  1  0  0  0  0
  2 33  1  0  0  0  0
  1 33  1  0  0  0  0
M  END
> <NMREDATA_VERSION>
1.1

> <NMREDATA_LEVEL>
0

> <NMREDATA_SOLVENT>
CD2Cl2

> <NMREDATA_TEMPERATURE>
298

> <NMREDATA_FORMULA>
C22H42BCl2N6OP2Rh

> <NMREDATA_SMILES>
[O]#C[Rh]12(N3=C(C)C=C(N3B(N3N1=C(C)C(=C3C)Cl)N1N2=C(C)C(=C1C)Cl)C)(P(C)(C)C)P(C)(C)C

> <NMREDATA_ASSIGNMENT>
Rh5, -312.00, 5

> <NMREDATA_1D_103Rh>
-312.00, L=Rh5

$$$$
