
  ACD/LABS04032413462D

 62 68  0  0  0  0  0  0  0  0  2 V2000
   13.5083  -14.6781    0.0000 Rh   0  5  0  0  0  0  0  0  0  0  0  0
   12.4347  -13.5083    0.0000 Br   0  0  0  0  0  0  0  0  0  0  0  0
   14.7902  -16.1202    0.0000 Br   0  0  0  0  0  0  0  0  0  0  0  0
   14.9665  -13.7807    0.0000 Sb   0  3  0  0  0  0  0  0  0  0  0  0
   11.6976  -16.0722    0.0000 Sb   0  3  0  0  0  0  0  0  0  0  0  0
   16.4727  -14.5949    0.0000 C    0  0  0  0  0  0  0  0  0  0  0  0
   17.9309  -13.6976    0.0000 C    0  0  0  0  0  0  0  0  0  0  0  0
   16.5208  -16.3065    0.0000 C    0  0  0  0  0  0  0  0  0  0  0  0
   19.4372  -14.5118    0.0000 C    0  0  0  0  0  0  0  0  0  0  0  0
   18.0270  -17.1206    0.0000 C    0  0  0  0  0  0  0  0  0  0  0  0
   19.4852  -16.2233    0.0000 C    0  0  0  0  0  0  0  0  0  0  0  0
   14.9185  -12.0692    0.0000 C    0  0  0  0  0  0  0  0  0  0  0  0
   13.4123  -11.2550    0.0000 C    0  0  0  0  0  0  0  0  0  0  0  0
   16.3767  -11.1718    0.0000 C    0  0  0  0  0  0  0  0  0  0  0  0
   13.3643   -9.5434    0.0000 C    0  0  0  0  0  0  0  0  0  0  0  0
   16.3287   -9.4603    0.0000 C    0  0  0  0  0  0  0  0  0  0  0  0
   14.8225   -8.6461    0.0000 C    0  0  0  0  0  0  0  0  0  0  0  0
   10.1147  -15.4195    0.0000 C    0  0  0  0  0  0  0  0  0  0  0  0
    8.7580  -16.4640    0.0000 C    0  0  0  0  0  0  0  0  0  0  0  0
    9.8884  -13.7223    0.0000 C    0  0  0  0  0  0  0  0  0  0  0  0
    7.1750  -15.8113    0.0000 C    0  0  0  0  0  0  0  0  0  0  0  0
    8.3055  -13.0696    0.0000 C    0  0  0  0  0  0  0  0  0  0  0  0
    6.9488  -14.1141    0.0000 C    0  0  0  0  0  0  0  0  0  0  0  0
   11.9238  -17.7693    0.0000 C    0  0  0  0  0  0  0  0  0  0  0  0
   13.5067  -18.4220    0.0000 C    0  0  0  0  0  0  0  0  0  0  0  0
   10.5671  -18.8139    0.0000 C    0  0  0  0  0  0  0  0  0  0  0  0
   13.7329  -20.1193    0.0000 C    0  0  0  0  0  0  0  0  0  0  0  0
   10.7934  -20.5111    0.0000 C    0  0  0  0  0  0  0  0  0  0  0  0
   12.3763  -21.1638    0.0000 C    0  0  0  0  0  0  0  0  0  0  0  0
   16.5689  -12.7392    0.0000 C    0  0  0  0  0  0  0  0  0  0  0  0
   17.4663  -13.3000    0.0000 C    0  0  0  0  0  0  0  0  0  0  0  0
   19.1648  -12.3866    0.0000 C    0  0  0  0  0  0  0  0  0  0  0  0
   10.5439  -16.3446    0.0000 C    0  0  0  0  0  0  0  0  0  0  0  0
   10.2394  -17.6906    0.0000 C    0  0  0  0  0  0  0  0  0  0  0  0
    8.7812  -17.7227    0.0000 C    0  0  0  0  0  0  0  0  0  0  0  0
   20.6390  -13.1878    0.0000 Sb   0  0  0  0  0  0  0  0  0  0  0  0
    8.1723  -18.8443    0.0000 Sb   0  0  0  0  0  0  0  0  0  0  0  0
   22.0993  -12.2938    0.0000 C    0  0  0  0  0  0  0  0  0  0  0  0
   22.0552  -10.5822    0.0000 C    0  0  0  0  0  0  0  0  0  0  0  0
   23.6038  -13.1114    0.0000 C    0  0  0  0  0  0  0  0  0  0  0  0
   23.5155   -9.6882    0.0000 C    0  0  0  0  0  0  0  0  0  0  0  0
   25.0640  -12.2174    0.0000 C    0  0  0  0  0  0  0  0  0  0  0  0
   25.0198  -10.5058    0.0000 C    0  0  0  0  0  0  0  0  0  0  0  0
   20.6832  -14.8994    0.0000 C    0  0  0  0  0  0  0  0  0  0  0  0
   22.1875  -15.7171    0.0000 C    0  0  0  0  0  0  0  0  0  0  0  0
   19.2229  -15.7936    0.0000 C    0  0  0  0  0  0  0  0  0  0  0  0
   22.2316  -17.4288    0.0000 C    0  0  0  0  0  0  0  0  0  0  0  0
   19.2670  -17.5051    0.0000 C    0  0  0  0  0  0  0  0  0  0  0  0
   20.7714  -18.3227    0.0000 C    0  0  0  0  0  0  0  0  0  0  0  0
    6.4607  -18.8893    0.0000 C    0  0  0  0  0  0  0  0  0  0  0  0
    5.6438  -20.3940    0.0000 C    0  0  0  0  0  0  0  0  0  0  0  0
    5.5659  -17.4294    0.0000 C    0  0  0  0  0  0  0  0  0  0  0  0
    3.9321  -20.4389    0.0000 C    0  0  0  0  0  0  0  0  0  0  0  0
    3.8543  -17.4744    0.0000 C    0  0  0  0  0  0  0  0  0  0  0  0
    3.0375  -18.9791    0.0000 C    0  0  0  0  0  0  0  0  0  0  0  0
    9.0670  -20.3041    0.0000 C    0  0  0  0  0  0  0  0  0  0  0  0
   10.7786  -20.2592    0.0000 C    0  0  0  0  0  0  0  0  0  0  0  0
    8.2501  -21.8090    0.0000 C    0  0  0  0  0  0  0  0  0  0  0  0
   11.6733  -21.7192    0.0000 C    0  0  0  0  0  0  0  0  0  0  0  0
    9.1448  -23.2688    0.0000 C    0  0  0  0  0  0  0  0  0  0  0  0
   10.8564  -23.2239    0.0000 C    0  0  0  0  0  0  0  0  0  0  0  0
    9.9990  -10.7522    0.0000 Br   0  5  0  0  0  0  0  0  0  0  0  0
  1  2  1  0  0  0  0
  1  3  1  0  0  0  0
  1  4  1  0  0  0  0
  1  5  1  0  0  0  0
  6  7  1  0  0  0  0
  6  8  2  0  0  0  0
  7  9  2  0  0  0  0
  8 10  1  0  0  0  0
  9 11  1  0  0  0  0
 10 11  2  0  0  0  0
  4  6  1  0  0  0  0
 12 13  1  0  0  0  0
 12 14  2  0  0  0  0
 13 15  2  0  0  0  0
 14 16  1  0  0  0  0
 15 17  1  0  0  0  0
 16 17  2  0  0  0  0
  4 12  1  0  0  0  0
 18 19  1  0  0  0  0
 18 20  2  0  0  0  0
 19 21  2  0  0  0  0
 20 22  1  0  0  0  0
 21 23  1  0  0  0  0
 22 23  2  0  0  0  0
  5 18  1  0  0  0  0
 24 25  1  0  0  0  0
 24 26  2  0  0  0  0
 25 27  2  0  0  0  0
 26 28  1  0  0  0  0
 27 29  1  0  0  0  0
 28 29  2  0  0  0  0
  5 24  1  0  0  0  0
  4 30  1  0  0  0  0
 30 31  1  0  0  0  0
 31 32  1  0  0  0  0
  5 33  1  0  0  0  0
 33 34  1  0  0  0  0
 34 35  1  0  0  0  0
 32 36  1  0  0  0  0
 35 37  1  0  0  0  0
 38 39  1  0  0  0  0
 38 40  2  0  0  0  0
 39 41  2  0  0  0  0
 40 42  1  0  0  0  0
 41 43  1  0  0  0  0
 42 43  2  0  0  0  0
 36 38  1  0  0  0  0
 44 45  1  0  0  0  0
 44 46  2  0  0  0  0
 45 47  2  0  0  0  0
 46 48  1  0  0  0  0
 47 49  1  0  0  0  0
 48 49  2  0  0  0  0
 36 44  1  0  0  0  0
 50 51  1  0  0  0  0
 50 52  2  0  0  0  0
 51 53  2  0  0  0  0
 52 54  1  0  0  0  0
 53 55  1  0  0  0  0
 54 55  2  0  0  0  0
 37 50  1  0  0  0  0
 56 57  1  0  0  0  0
 56 58  2  0  0  0  0
 57 59  2  0  0  0  0
 58 60  1  0  0  0  0
 59 61  1  0  0  0  0
 60 61  2  0  0  0  0
 37 56  1  0  0  0  0
M  END
> <NMREDATA_VERSION>
1.1

> <NMREDATA_LEVEL>
0

> <NMREDATA_SOLVENT>
CD2Cl2

> <NMREDATA_TEMPERATURE>
300

> <NMREDATA_FORMULA>
C54H55Br3RhSb4

> <NMREDATA_SMILES>
Br[Rh]([SbH](c1ccccc1)(c1ccccc1)CCC[Sb](c1ccccc1)c1ccccc1)([SbH](c1ccccc1)(c1ccccc1)CCC[Sb](c1ccccc1)c1ccccc1)Br.Br

> <NMREDATA_ASSIGNMENT>
Rh1, 1535.00, 1

> <NMREDATA_1D_103Rh>
1535.00, L=Rh1

$$$$
