
  ACD/LABS03122417382D

 24 22  0  0  0  0  0  0  0  0  2 V2000
   11.1528   -9.1738    0.0000 Rh   0  5  0  0  0  0  0  0  0  0  0  0
   11.1528  -11.0807    0.0000 Cl   0  0  0  0  0  0  0  0  0  0  0  0
    9.2459   -9.1738    0.0000 Cl   0  0  0  0  0  0  0  0  0  0  0  0
   13.0596   -9.1738    0.0000 C    0  0  0  0  0  0  0  0  0  0  0  0
   11.1528   -7.2669    0.0000 C    0  0  0  0  0  0  0  0  0  0  0  0
   14.9665   -9.1738    0.0000 O    0  0  0  0  0  0  0  0  0  0  0  0
   11.1528   -5.3601    0.0000 O    0  0  0  0  0  0  0  0  0  0  0  0
   25.5005   -9.0216    0.0000 N    0  3  0  0  0  0  0  0  0  0  0  0
   27.1380   -8.0761    0.0000 C    0  0  0  0  0  0  0  0  0  0  0  0
   27.1380   -6.1853    0.0000 C    0  0  0  0  0  0  0  0  0  0  0  0
   28.7755   -5.2399    0.0000 C    0  0  0  0  0  0  0  0  0  0  0  0
   28.7755   -3.3490    0.0000 C    0  0  0  0  0  0  0  0  0  0  0  0
   24.5550   -7.3841    0.0000 C    0  0  0  0  0  0  0  0  0  0  0  0
   25.5005   -5.7465    0.0000 C    0  0  0  0  0  0  0  0  0  0  0  0
   24.5550   -4.1090    0.0000 C    0  0  0  0  0  0  0  0  0  0  0  0
   25.5005   -2.4715    0.0000 C    0  0  0  0  0  0  0  0  0  0  0  0
   26.4459  -10.6591    0.0000 C    0  0  0  0  0  0  0  0  0  0  0  0
   25.5005  -12.2966    0.0000 C    0  0  0  0  0  0  0  0  0  0  0  0
   26.4459  -13.9341    0.0000 C    0  0  0  0  0  0  0  0  0  0  0  0
   25.5005  -15.5716    0.0000 C    0  0  0  0  0  0  0  0  0  0  0  0
   23.8629   -9.9670    0.0000 C    0  0  0  0  0  0  0  0  0  0  0  0
   22.2254   -9.0216    0.0000 C    0  0  0  0  0  0  0  0  0  0  0  0
   20.5879   -9.9670    0.0000 C    0  0  0  0  0  0  0  0  0  0  0  0
   18.9504   -9.0216    0.0000 C    0  0  0  0  0  0  0  0  0  0  0  0
  1  2  1  0  0  0  0
  1  3  1  0  0  0  0
  1  4  1  0  0  0  0
  1  5  1  0  0  0  0
  4  6  3  0  0  0  0
  5  7  3  0  0  0  0
  8  9  1  0  0  0  0
  9 10  1  0  0  0  0
 10 11  1  0  0  0  0
 11 12  1  0  0  0  0
  8 13  1  0  0  0  0
 13 14  1  0  0  0  0
 14 15  1  0  0  0  0
 15 16  1  0  0  0  0
  8 17  1  0  0  0  0
 17 18  1  0  0  0  0
 18 19  1  0  0  0  0
 19 20  1  0  0  0  0
  8 21  1  0  0  0  0
 21 22  1  0  0  0  0
 22 23  1  0  0  0  0
 23 24  1  0  0  0  0
M  END
> <NMREDATA_VERSION>
1.1

> <NMREDATA_LEVEL>
0

> <NMREDATA_SOLVENT>
CD2Cl2

> <NMREDATA_TEMPERATURE>
200

> <NMREDATA_FORMULA>
C18H37Cl2NO2Rh

> <NMREDATA_SMILES>
[O]#C[Rh](C#[O])(Cl)Cl.CCCCN(CCCC)(CCCC)CCCC

> <NMREDATA_ASSIGNMENT>
Rh1, 73.00, 1

> <NMREDATA_1D_103Rh>
73.00, L=Rh1

$$$$
