
  ACD/LABS03132412372D

 47 52  0  0  0  0  0  0  0  0  1 V2000
    9.4996   -5.9123    0.0000 C    0  0  0  0  0  0  0  0  0  0  0  0
    8.3481   -6.5778    0.0000 C    0  0  0  0  0  0  0  0  0  0  0  0
    9.5002   -4.5823    0.0000 C    0  0  0  0  0  0  0  0  0  0  0  0
    7.1969   -5.9131    0.0000 C    0  0  0  0  0  0  0  0  0  0  0  0
    8.3490   -3.9176    0.0000 C    0  0  0  0  0  0  0  0  0  0  0  0
    7.1971   -4.5829    0.0000 C    0  0  0  0  0  0  0  0  0  0  0  0
   10.6500   -4.2742    0.0000 C    0  0  0  0  0  0  0  0  0  0  0  0
   11.3147   -3.1229    0.0000 C    0  0  0  0  0  0  0  0  0  0  0  0
   11.3155   -5.4257    0.0000 C    0  0  0  0  0  0  0  0  0  0  0  0
   12.6449   -3.1232    0.0000 C    0  0  0  0  0  0  0  0  0  0  0  0
   12.6455   -5.4263    0.0000 C    0  0  0  0  0  0  0  0  0  0  0  0
   13.3102   -4.2751    0.0000 C    0  0  0  0  0  0  0  0  0  0  0  0
   13.9547  -15.1046    0.0000 C    0  0  0  0  0  0  0  0  0  0  0  0
   15.2623  -14.8774    0.0000 C    0  0  0  0  0  0  0  0  0  0  0  0
   13.0985  -14.0886    0.0000 C    0  0  0  0  0  0  0  0  0  0  0  0
   15.7187  -13.6266    0.0000 C    0  0  0  0  0  0  0  0  0  0  0  0
   13.5547  -12.8372    0.0000 C    0  0  0  0  0  0  0  0  0  0  0  0
   14.8628  -12.6102    0.0000 C    0  0  0  0  0  0  0  0  0  0  0  0
    8.2130  -13.2635    0.0000 C    0  0  0  0  0  0  0  0  0  0  0  0
    6.8975  -13.4863    0.0000 C    0  0  0  0  0  0  0  0  0  0  0  0
    9.0614  -14.2750    0.0000 C    0  0  0  0  0  0  0  0  0  0  0  0
    6.4411  -14.7370    0.0000 C    0  0  0  0  0  0  0  0  0  0  0  0
    8.6052  -15.5264    0.0000 C    0  0  0  0  0  0  0  0  0  0  0  0
    7.2971  -15.7534    0.0000 C    0  0  0  0  0  0  0  0  0  0  0  0
    6.3944  -12.4078    0.0000 C    0  0  0  0  0  0  0  0  0  0  0  0
    7.4182  -11.5561    0.0000 C    0  0  0  0  0  0  0  0  0  0  0  0
    5.1552  -11.9483    0.0000 C    0  0  0  0  0  0  0  0  0  0  0  0
    7.1911  -10.2480    0.0000 C    0  0  0  0  0  0  0  0  0  0  0  0
    4.9205  -10.6358    0.0000 C    0  0  0  0  0  0  0  0  0  0  0  0
    5.9442   -9.7841    0.0000 C    0  0  0  0  0  0  0  0  0  0  0  0
    9.6661   -9.2929    0.0000 Rh   0  0  0  0  0  0  0  0  0  0  0  0
    8.4154   -8.8365    0.0000 O    0  0  0  0  0  0  0  0  0  0  0  0
    8.1836   -7.5366    0.0000 C    0  0  0  0  0  0  0  0  0  0  0  0
    9.1996   -6.6804    0.0000 O    0  0  0  0  0  0  0  0  0  0  0  0
    6.9367   -7.0726    0.0000 C    0  0  0  0  0  0  0  0  0  0  0  0
   15.3143  -11.3670    0.0000 P    0  0  0  0  0  0  0  0  0  0  0  0
    8.6692  -12.0121    0.0000 P    0  0  0  0  0  0  0  0  0  0  0  0
   10.6509   -6.5769    0.0000 P    0  0  0  0  0  0  0  0  0  0  0  0
   18.8325  -11.4234    0.0000 C    0  0  0  0  0  0  0  0  0  0  0  0
   17.5892  -10.9719    0.0000 C    0  0  0  0  0  0  0  0  0  0  0  0
   19.0676  -12.7362    0.0000 C    0  0  0  0  0  0  0  0  0  0  0  0
   16.5654  -11.8236    0.0000 C    0  0  0  0  0  0  0  0  0  0  0  0
   18.0435  -13.5876    0.0000 C    0  0  0  0  0  0  0  0  0  0  0  0
   16.7927  -13.1313    0.0000 C    0  0  0  0  0  0  0  0  0  0  0  0
   11.9059   -7.0827    0.0000 C    0  0  0  0  0  0  0  0  0  0  0  0
    9.9670  -12.4187    0.0000 C    0  0  0  0  0  0  0  0  0  0  0  0
   15.7517  -10.1272    0.0000 C    0  0  0  0  0  0  0  0  0  0  0  0
  1  2  1  0  0  0  0
  1  3  2  0  0  0  0
  2  4  2  0  0  0  0
  3  5  1  0  0  0  0
  4  6  1  0  0  0  0
  5  6  2  0  0  0  0
  7  8  1  0  0  0  0
  7  9  2  0  0  0  0
  8 10  2  0  0  0  0
  9 11  1  0  0  0  0
 10 12  1  0  0  0  0
 11 12  2  0  0  0  0
 13 14  1  0  0  0  0
 13 15  2  0  0  0  0
 14 16  2  0  0  0  0
 15 17  1  0  0  0  0
 16 18  1  0  0  0  0
 17 18  2  0  0  0  0
 19 20  1  0  0  0  0
 19 21  2  0  0  0  0
 20 22  2  0  0  0  0
 21 23  1  0  0  0  0
 22 24  1  0  0  0  0
 23 24  2  0  0  0  0
 25 26  1  0  0  0  0
 25 27  2  0  0  0  0
 26 28  2  0  0  0  0
 27 29  1  0  0  0  0
 28 30  1  0  0  0  0
 29 30  2  0  0  0  0
 31 32  1  0  0  0  0
 32 33  1  0  0  0  0
 33 34  2  0  0  0  0
 33 35  1  0  0  0  0
 31 36  1  0  0  0  0
 31 37  1  0  0  0  0
 31 38  1  0  0  0  0
 26 37  1  0  0  0  0
 19 37  1  0  0  0  0
 39 40  1  0  0  0  0
 39 41  2  0  0  0  0
 40 42  2  0  0  0  0
 41 43  1  0  0  0  0
 42 44  1  0  0  0  0
 43 44  2  0  0  0  0
 36 42  1  0  0  0  0
 18 36  1  0  0  0  0
  9 38  1  0  0  0  0
  1 38  1  0  0  0  0
 38 45  1  0  0  0  0
 37 46  1  0  0  0  0
 36 47  1  0  0  0  0
M  END
> <NMREDATA_VERSION>
1.1

> <NMREDATA_LEVEL>
0

> <NMREDATA_SOLVENT>
toluene-d8

> <NMREDATA_TEMPERATURE>
248

> <NMREDATA_FORMULA>
C41H45O2P3Rh

> <NMREDATA_SMILES>
CC(=O)O[Rh](P(c1ccccc1)(c1ccccc1)C)(P(c1ccccc1)(c1ccccc1)C)P(c1ccccc1)(c1ccccc1)C

> <NMREDATA_ASSIGNMENT>
Rh31, 138.00, 31

> <NMREDATA_1D_103Rh>
138.00, L=Rh31

$$$$
