
  ACD/LABS02072409452D

 52 60  0  0  0  0  0  0  0  0  1 V2000
   28.5691   -3.1968    0.0000 C    0  0  0  0  0  0  0  0  0  0  0  0
   28.5691   -4.5268    0.0000 C    0  0  0  0  0  0  0  0  0  0  0  0
   27.4172   -2.5318    0.0000 C    0  0  0  0  0  0  0  0  0  0  0  0
   27.4172   -5.1918    0.0000 C    0  0  0  0  0  0  0  0  0  0  0  0
   26.2654   -3.1968    0.0000 C    0  0  0  0  0  0  0  0  0  0  0  0
   26.2654   -4.5268    0.0000 C    0  0  0  0  0  0  0  0  0  0  0  0
   25.8469   -6.3616    0.0000 Rh   0  0  0  0  0  0  0  0  0  0  0  0
   23.4272   -7.6916    0.0000 N    0  0  0  0  0  0  0  0  0  0  0  0
   20.5340   -5.2006    0.0000 C    0  0  0  0  0  0  0  0  0  0  0  0
   21.1990   -6.3524    0.0000 C    0  0  0  0  0  0  0  0  0  0  0  0
   19.2188   -5.0024    0.0000 C    0  0  0  0  0  0  0  0  0  0  0  0
   20.7131   -7.5905    0.0000 C    0  0  0  0  0  0  0  0  0  0  0  0
   18.2439   -5.9070    0.0000 C    0  0  0  0  0  0  0  0  0  0  0  0
   18.3433   -7.2333    0.0000 C    0  0  0  0  0  0  0  0  0  0  0  0
   19.4422   -7.9825    0.0000 C    0  0  0  0  0  0  0  0  0  0  0  0
   17.1450   -7.8104    0.0000 C    0  0  0  0  0  0  0  0  0  0  0  0
   17.0456   -9.1367    0.0000 C    0  0  0  0  0  0  0  0  0  0  0  0
   19.3428   -9.3088    0.0000 C    0  0  0  0  0  0  0  0  0  0  0  0
   18.1445   -9.8859    0.0000 C    0  0  0  0  0  0  0  0  0  0  0  0
   21.1990   -4.0489    0.0000 C    0  0  0  0  0  0  0  0  0  0  0  0
   22.5290   -4.0490    0.0000 C    0  0  0  0  0  0  0  0  0  0  0  0
   22.5289   -6.3525    0.0000 C    0  0  0  0  0  0  0  0  0  0  0  0
   23.1939   -5.2008    0.0000 C    0  0  0  0  0  0  0  0  0  0  0  0
   25.9911   -8.2204    0.0000 N    0  0  0  0  0  0  0  0  0  0  0  0
   23.0751  -12.7004    0.0000 C    0  0  0  0  0  0  0  0  0  0  0  0
   23.0751  -11.3704    0.0000 C    0  0  0  0  0  0  0  0  0  0  0  0
   24.1149  -13.5296    0.0000 C    0  0  0  0  0  0  0  0  0  0  0  0
   24.1149  -10.5411    0.0000 C    0  0  0  0  0  0  0  0  0  0  0  0
   25.4116  -13.2337    0.0000 C    0  0  0  0  0  0  0  0  0  0  0  0
   25.9887  -12.0354    0.0000 C    0  0  0  0  0  0  0  0  0  0  0  0
   25.4116  -10.8371    0.0000 C    0  0  0  0  0  0  0  0  0  0  0  0
   27.3149  -12.1348    0.0000 C    0  0  0  0  0  0  0  0  0  0  0  0
   28.0642  -11.0359    0.0000 C    0  0  0  0  0  0  0  0  0  0  0  0
   26.1608   -9.7382    0.0000 C    0  0  0  0  0  0  0  0  0  0  0  0
   27.4871   -9.8376    0.0000 C    0  0  0  0  0  0  0  0  0  0  0  0
   21.9233  -13.3654    0.0000 C    0  0  0  0  0  0  0  0  0  0  0  0
   20.7715  -12.7004    0.0000 C    0  0  0  0  0  0  0  0  0  0  0  0
   21.9233  -10.7054    0.0000 C    0  0  0  0  0  0  0  0  0  0  0  0
   20.7715  -11.3704    0.0000 C    0  0  0  0  0  0  0  0  0  0  0  0
   29.6446   -6.6019    0.0000 P    0  0  0  0  0  0  0  0  0  0  0  0
   30.2355   -7.7934    0.0000 C    0  0  0  0  0  0  0  0  0  0  0  0
   31.5629   -7.8775    0.0000 C    0  0  0  0  0  0  0  0  0  0  0  0
   29.4991   -8.9010    0.0000 C    0  0  0  0  0  0  0  0  0  0  0  0
   32.1537   -9.0691    0.0000 C    0  0  0  0  0  0  0  0  0  0  0  0
   30.0900  -10.0925    0.0000 C    0  0  0  0  0  0  0  0  0  0  0  0
   31.4173  -10.1766    0.0000 C    0  0  0  0  0  0  0  0  0  0  0  0
   30.3810   -5.4944    0.0000 C    0  0  0  0  0  0  0  0  0  0  0  0
   29.7901   -4.3029    0.0000 C    0  0  0  0  0  0  0  0  0  0  0  0
   31.7084   -5.5784    0.0000 C    0  0  0  0  0  0  0  0  0  0  0  0
   30.5266   -3.1954    0.0000 C    0  0  0  0  0  0  0  0  0  0  0  0
   32.4448   -4.4709    0.0000 C    0  0  0  0  0  0  0  0  0  0  0  0
   31.8539   -3.2794    0.0000 C    0  0  0  0  0  0  0  0  0  0  0  0
  1  2  1  0  0  0  0
  1  3  2  0  0  0  0
  2  4  2  0  0  0  0
  3  5  1  0  0  0  0
  4  6  1  0  0  0  0
  5  6  2  0  0  0  0
  7  8  1  0  0  0  0
  9 11  1  0  0  0  0
 10 12  1  0  0  0  0
 11 13  2  0  0  0  0
 12 15  1  0  0  0  0
 13 14  1  0  0  0  0
 14 16  1  0  0  0  0
 14 15  2  0  0  0  0
 16 17  2  0  0  0  0
 15 18  1  0  0  0  0
 17 19  1  0  0  0  0
 19 18  2  0  0  0  0
  9 20  1  0  0  0  0
  9 10  2  0  0  0  0
 20 21  2  0  0  0  0
 10 22  1  0  0  0  0
 21 23  1  0  0  0  0
 22 23  2  0  0  0  0
  8 12  2  0  0  0  0
  7 24  1  0  0  0  0
 25 27  1  0  0  0  0
 26 28  1  0  0  0  0
 27 29  2  0  0  0  0
 28 31  1  0  0  0  0
 29 30  1  0  0  0  0
 30 32  1  0  0  0  0
 30 31  2  0  0  0  0
 32 33  2  0  0  0  0
 31 34  1  0  0  0  0
 33 35  1  0  0  0  0
 34 35  2  0  0  0  0
 25 36  1  0  0  0  0
 25 26  2  0  0  0  0
 36 37  2  0  0  0  0
 26 38  1  0  0  0  0
 37 39  1  0  0  0  0
 38 39  2  0  0  0  0
 24 28  2  0  0  0  0
  7 40  1  0  0  0  0
 41 42  1  0  0  0  0
 41 43  2  0  0  0  0
 42 44  2  0  0  0  0
 43 45  1  0  0  0  0
 44 46  1  0  0  0  0
 45 46  2  0  0  0  0
 40 41  1  0  0  0  0
 47 48  1  0  0  0  0
 47 49  2  0  0  0  0
 48 50  2  0  0  0  0
 49 51  1  0  0  0  0
 50 52  1  0  0  0  0
 51 52  2  0  0  0  0
 40 47  1  0  0  0  0
  2 40  1  0  0  0  0
M  END
> <NMREDATA_VERSION>
1.1

> <NMREDATA_LEVEL>
0

> <NMREDATA_SOLVENT>
THF

> <NMREDATA_TEMPERATURE>
200

> <NMREDATA_FORMULA>
C48H36N2PRh

> <NMREDATA_SMILES>
c1ccc(cc1)P([Rh](N=c1c2ccccc2ccc2c1cccc2)N=c1c2ccccc2ccc2c1cccc2)(c1ccccc1)c1ccccc1

> <NMREDATA_ASSIGNMENT>
Rh7, 838.00, 7

> <NMREDATA_1D_103Rh>
838.00, L=Rh7

$$$$
