
  ACD/LABS03252415532D

 27 27  0  0  0  0  0  0  0  0  1 V2000
   15.3346  -13.0481    0.0000 O    0  0  0  0  0  0  0  0  0  0  0  0
   15.7862  -11.8002    0.0000 N    0  0  0  0  0  0  0  0  0  0  0  0
   17.0959  -11.5698    0.0000 C    0  0  0  0  0  0  0  0  0  0  0  0
   17.9457  -12.5878    0.0000 C    0  0  0  0  0  0  0  0  0  0  0  0
   17.5563  -10.3309    0.0000 C    0  0  0  0  0  0  0  0  0  0  0  0
   16.6978   -9.3042    0.0000 C    0  0  0  0  0  0  0  0  0  0  0  0
   18.8573  -10.1006    0.0000 N    0  0  0  0  0  0  0  0  0  0  0  0
   19.3177   -8.8618    0.0000 O    0  0  0  0  0  0  0  0  0  0  0  0
   22.9901  -15.1012    0.0000 O    0  0  0  0  0  0  0  0  0  0  0  0
   21.9638  -14.2518    0.0000 N    0  0  0  0  0  0  0  0  0  0  0  0
   22.1938  -12.9417    0.0000 C    0  0  0  0  0  0  0  0  0  0  0  0
   23.4417  -12.4817    0.0000 C    0  0  0  0  0  0  0  0  0  0  0  0
   21.1758  -12.0923    0.0000 C    0  0  0  0  0  0  0  0  0  0  0  0
   19.9371  -12.5435    0.0000 C    0  0  0  0  0  0  0  0  0  0  0  0
   21.4062  -10.7822    0.0000 N    0  0  0  0  0  0  0  0  0  0  0  0
   20.3883   -9.9324    0.0000 O    0  0  0  0  0  0  0  0  0  0  0  0
   20.6182   -8.6318    0.0000 Rh   0  0  0  0  0  0  0  0  0  0  0  0
   21.9287   -8.8584    0.0000 C    0  0  0  0  0  0  0  0  0  0  0  0
   22.7802   -7.8367    0.0000 C    0  0  0  0  0  0  0  0  0  0  0  0
   22.3879  -10.1067    0.0000 C    0  0  0  0  0  0  0  0  0  0  0  0
   24.0909   -8.0633    0.0000 C    0  0  0  0  0  0  0  0  0  0  0  0
   23.6984  -10.3332    0.0000 C    0  0  0  0  0  0  0  0  0  0  0  0
   24.5499   -9.3116    0.0000 C    0  0  0  0  0  0  0  0  0  0  0  0
   20.7993   -7.1948    0.0000 P    0  0  0  0  0  0  0  0  0  0  0  0
   22.0252   -6.6791    0.0000 C    0  0  0  0  0  0  0  0  0  0  0  0
   19.7397   -6.3910    0.0000 C    0  0  0  0  0  0  0  0  0  0  0  0
   19.5734   -7.7106    0.0000 C    0  0  0  0  0  0  0  0  0  0  0  0
  1  2  1  0  0  0  0
  2  3  2  0  0  0  0
  3  4  1  0  0  0  0
  3  5  1  0  0  0  0
  5  6  1  0  0  0  0
  5  7  2  0  0  0  0
  7  8  1  0  0  0  0
  9 10  1  0  0  0  0
 10 11  2  0  0  0  0
 11 12  1  0  0  0  0
 11 13  1  0  0  0  0
 13 14  1  0  0  0  0
 13 15  2  0  0  0  0
 15 16  1  0  0  0  0
 16 17  1  0  0  0  0
  8 17  1  0  0  0  0
 18 19  1  0  0  0  0
 18 20  2  0  0  0  0
 19 21  2  0  0  0  0
 20 22  1  0  0  0  0
 21 23  1  0  0  0  0
 22 23  2  0  0  0  0
 17 18  1  0  0  0  0
 17 24  1  0  0  0  0
 24 25  1  0  0  0  0
 24 26  1  0  0  0  0
 24 27  1  0  0  0  0
M  END
> <NMREDATA_VERSION>
1.1

> <NMREDATA_LEVEL>
0

> <NMREDATA_SOLVENT>
DCCl3

> <NMREDATA_TEMPERATURE>
298

> <NMREDATA_FORMULA>
C17H29N4O4PRh

> <NMREDATA_SMILES>
O/N=C(/C(=N/O[Rh](P(C)(C)C)(c1ccccc1)O/N=C(/C(=N/O)/C)\C)/C)\C

> <NMREDATA_ASSIGNMENT>
Rh17, 2109.00, 17

> <NMREDATA_1D_103Rh>
2109.00, L=Rh17

$$$$
