
  ACD/LABS03132412352D

 57 64  0  0  0  0  0  0  0  0  1 V2000
    7.1372   -5.7767    0.0000 C    0  0  0  0  0  0  0  0  0  0  0  0
    7.5808   -7.0359    0.0000 C    0  0  0  0  0  0  0  0  0  0  0  0
    7.9888   -4.7661    0.0000 C    0  0  0  0  0  0  0  0  0  0  0  0
    8.8930   -7.2666    0.0000 C    0  0  0  0  0  0  0  0  0  0  0  0
    9.3010   -4.9964    0.0000 C    0  0  0  0  0  0  0  0  0  0  0  0
    9.7533   -6.2469    0.0000 C    0  0  0  0  0  0  0  0  0  0  0  0
   13.2114   -7.6125    0.0000 C    0  0  0  0  0  0  0  0  0  0  0  0
   12.7500   -8.8629    0.0000 C    0  0  0  0  0  0  0  0  0  0  0  0
   12.3512   -6.5927    0.0000 C    0  0  0  0  0  0  0  0  0  0  0  0
   11.4469   -9.0845    0.0000 C    0  0  0  0  0  0  0  0  0  0  0  0
   11.0568   -6.8143    0.0000 C    0  0  0  0  0  0  0  0  0  0  0  0
   10.5958   -8.0648    0.0000 C    0  0  0  0  0  0  0  0  0  0  0  0
    7.6338  -10.2103    0.0000 C    0  0  0  0  0  0  0  0  0  0  0  0
    6.3303  -10.4407    0.0000 C    0  0  0  0  0  0  0  0  0  0  0  0
    8.0952   -8.9694    0.0000 C    0  0  0  0  0  0  0  0  0  0  0  0
    5.4701   -9.4209    0.0000 C    0  0  0  0  0  0  0  0  0  0  0  0
    7.2437   -7.9496    0.0000 C    0  0  0  0  0  0  0  0  0  0  0  0
    5.9315   -8.1799    0.0000 C    0  0  0  0  0  0  0  0  0  0  0  0
   14.1956   -6.8321    0.0000 C    0  0  0  0  0  0  0  0  0  0  0  0
   15.3483   -6.1669    0.0000 C    0  0  0  0  0  0  0  0  0  0  0  0
   13.0516   -6.1669    0.0000 C    0  0  0  0  0  0  0  0  0  0  0  0
   15.3483   -4.8369    0.0000 C    0  0  0  0  0  0  0  0  0  0  0  0
   13.0516   -4.8369    0.0000 C    0  0  0  0  0  0  0  0  0  0  0  0
   14.1956   -4.1717    0.0000 C    0  0  0  0  0  0  0  0  0  0  0  0
   15.9692   -6.6814    0.0000 C    0  0  0  0  0  0  0  0  0  0  0  0
   15.5078   -7.9318    0.0000 C    0  0  0  0  0  0  0  0  0  0  0  0
   17.2727   -6.4507    0.0000 C    0  0  0  0  0  0  0  0  0  0  0  0
   16.3594   -8.9516    0.0000 C    0  0  0  0  0  0  0  0  0  0  0  0
   18.1330   -7.4704    0.0000 C    0  0  0  0  0  0  0  0  0  0  0  0
   17.6716   -8.7209    0.0000 C    0  0  0  0  0  0  0  0  0  0  0  0
   15.9071  -11.2301    0.0000 C    0  0  0  0  0  0  0  0  0  0  0  0
   15.6764   -9.9175    0.0000 C    0  0  0  0  0  0  0  0  0  0  0  0
   14.8873  -12.0813    0.0000 C    0  0  0  0  0  0  0  0  0  0  0  0
   14.4263   -9.4565    0.0000 C    0  0  0  0  0  0  0  0  0  0  0  0
   13.6368  -11.6203    0.0000 C    0  0  0  0  0  0  0  0  0  0  0  0
   13.4065  -10.3168    0.0000 C    0  0  0  0  0  0  0  0  0  0  0  0
   10.0014   -9.6603    0.0000 Rh   0  0  0  0  0  0  0  0  0  0  0  0
    9.3453   -8.5171    0.0000 P    0  0  0  0  0  0  0  0  0  0  0  0
   14.1956   -8.1621    0.0000 P    0  0  0  0  0  0  0  0  0  0  0  0
   10.6666  -10.8221    0.0000 N    0  0  0  0  0  0  0  0  0  0  0  0
   11.9875  -10.8221    0.0000 C    0  0  0  0  0  0  0  0  0  0  0  0
    9.9927  -11.9661    0.0000 C    0  0  0  0  0  0  0  0  0  0  0  0
   12.6436  -11.9839    0.0000 C    0  0  0  0  0  0  0  0  0  0  0  0
   10.6488  -13.1276    0.0000 C    0  0  0  0  0  0  0  0  0  0  0  0
   11.9697  -13.1276    0.0000 C    0  0  0  0  0  0  0  0  0  0  0  0
    8.8487  -10.3255    0.0000 S    0  0  0  0  0  0  0  0  0  0  0  0
    8.3877  -11.5760    0.0000 C    0  0  0  0  0  0  0  0  0  0  0  0
    7.0842  -11.8063    0.0000 C    0  0  0  0  0  0  0  0  0  0  0  0
    9.2480  -12.5957    0.0000 C    0  0  0  0  0  0  0  0  0  0  0  0
    6.6232  -13.0480    0.0000 C    0  0  0  0  0  0  0  0  0  0  0  0
    8.7866  -13.8458    0.0000 C    0  0  0  0  0  0  0  0  0  0  0  0
    7.4744  -14.0678    0.0000 C    0  0  0  0  0  0  0  0  0  0  0  0
    6.3936  -11.3771    0.0000 F    0  0  0  0  0  0  0  0  0  0  0  0
    5.6084  -13.2199    0.0000 F    0  0  0  0  0  0  0  0  0  0  0  0
    7.2749  -15.1268    0.0000 F    0  0  0  0  0  0  0  0  0  0  0  0
    9.2780  -14.6941    0.0000 F    0  0  0  0  0  0  0  0  0  0  0  0
    9.8869  -12.4668    0.0000 F    0  0  0  0  0  0  0  0  0  0  0  0
  1  2  1  0  0  0  0
  1  3  2  0  0  0  0
  2  4  2  0  0  0  0
  3  5  1  0  0  0  0
  4  6  1  0  0  0  0
  5  6  2  0  0  0  0
  7  8  1  0  0  0  0
  7  9  2  0  0  0  0
  8 10  2  0  0  0  0
  9 11  1  0  0  0  0
 10 12  1  0  0  0  0
 11 12  2  0  0  0  0
 13 14  1  0  0  0  0
 13 15  2  0  0  0  0
 14 16  2  0  0  0  0
 15 17  1  0  0  0  0
 16 18  1  0  0  0  0
 17 18  2  0  0  0  0
 19 20  1  0  0  0  0
 19 21  2  0  0  0  0
 20 22  2  0  0  0  0
 21 23  1  0  0  0  0
 22 24  1  0  0  0  0
 23 24  2  0  0  0  0
 25 26  1  0  0  0  0
 25 27  2  0  0  0  0
 26 28  2  0  0  0  0
 27 29  1  0  0  0  0
 28 30  1  0  0  0  0
 29 30  2  0  0  0  0
 31 32  1  0  0  0  0
 31 33  2  0  0  0  0
 32 34  2  0  0  0  0
 33 35  1  0  0  0  0
 34 36  1  0  0  0  0
 35 36  2  0  0  0  0
 37 38  1  0  0  0  0
 37 39  1  0  0  0  0
 34 39  1  0  0  0  0
 26 39  1  0  0  0  0
 19 39  1  0  0  0  0
 15 38  1  0  0  0  0
 12 38  1  0  0  0  0
  4 38  1  0  0  0  0
 40 41  1  0  0  0  0
 40 42  2  0  0  0  0
 41 43  2  0  0  0  0
 42 44  1  0  0  0  0
 43 45  1  0  0  0  0
 44 45  2  0  0  0  0
 37 40  1  0  0  0  0
 37 46  1  0  0  0  0
 47 48  2  0  0  0  0
 47 49  1  0  0  0  0
 48 50  1  0  0  0  0
 49 51  2  0  0  0  0
 50 52  2  0  0  0  0
 51 52  1  0  0  0  0
 46 47  1  0  0  0  0
 48 53  1  0  0  0  0
 50 54  1  0  0  0  0
 52 55  1  0  0  0  0
 51 56  1  0  0  0  0
 49 57  1  0  0  0  0
M  END
> <NMREDATA_VERSION>
1.1

> <NMREDATA_LEVEL>
0

> <NMREDATA_SOLVENT>
toluene-d8

> <NMREDATA_TEMPERATURE>
248

> <NMREDATA_FORMULA>
C47H38F5NP2RhS

> <NMREDATA_SMILES>
Fc1c(S[Rh](P(c2ccccc2)(c2ccccc2)c2ccccc2)(P(c2ccccc2)(c2ccccc2)c2ccccc2)N2=CC=CC=C2)c(F)c(c(c1F)F)F

> <NMREDATA_ASSIGNMENT>
Rh37, 7.00, 37

> <NMREDATA_1D_103Rh>
7.00, L=Rh37

$$$$
