
  ACD/LABS02122415302D

 38 42  0  0  0  0  0  0  0  0  1 V2000
   16.1716   -8.1596    0.0000 Rh   0  0  0  0  0  0  0  0  0  0  0  0
   18.3313  -11.4394    0.0000 C    0  0  0  0  0  0  0  0  0  0  0  0
   18.7890  -10.1918    0.0000 C    0  0  0  0  0  0  0  0  0  0  0  0
   17.0298  -11.6682    0.0000 C    0  0  0  0  0  0  0  0  0  0  0  0
   17.9329   -9.1700    0.0000 C    0  0  0  0  0  0  0  0  0  0  0  0
   16.1739  -10.6467    0.0000 C    0  0  0  0  0  0  0  0  0  0  0  0
   16.6234   -9.4039    0.0000 C    0  0  0  0  0  0  0  0  0  0  0  0
   18.3904   -7.9230    0.0000 C    0  0  0  0  0  0  0  0  0  0  0  0
   14.8602  -10.8725    0.0000 C    0  0  0  0  0  0  0  0  0  0  0  0
   19.6996   -7.6893    0.0000 P    0  0  0  0  0  0  0  0  0  0  0  0
   14.4026  -12.1201    0.0000 P    0  0  0  0  0  0  0  0  0  0  0  0
   20.5558   -8.7106    0.0000 N    0  0  0  0  0  0  0  0  0  0  0  0
   21.8780   -8.6235    0.0000 C    0  0  0  0  0  0  0  0  0  0  0  0
   20.2283  -10.0061    0.0000 C    0  0  0  0  0  0  0  0  0  0  0  0
   22.3775   -9.8612    0.0000 C    0  0  0  0  0  0  0  0  0  0  0  0
   21.3592  -10.7052    0.0000 C    0  0  0  0  0  0  0  0  0  0  0  0
   20.1620   -6.4499    0.0000 N    0  0  0  0  0  0  0  0  0  0  0  0
   19.4246   -5.3496    0.0000 C    0  0  0  0  0  0  0  0  0  0  0  0
   21.4431   -6.0785    0.0000 C    0  0  0  0  0  0  0  0  0  0  0  0
   20.2439   -4.3029    0.0000 C    0  0  0  0  0  0  0  0  0  0  0  0
   21.4915   -4.7605    0.0000 C    0  0  0  0  0  0  0  0  0  0  0  0
   15.2584  -13.1416    0.0000 N    0  0  0  0  0  0  0  0  0  0  0  0
   16.5885  -13.0499    0.0000 C    0  0  0  0  0  0  0  0  0  0  0  0
   14.9388  -14.4325    0.0000 C    0  0  0  0  0  0  0  0  0  0  0  0
   17.0880  -14.2876    0.0000 C    0  0  0  0  0  0  0  0  0  0  0  0
   16.0619  -15.1361    0.0000 C    0  0  0  0  0  0  0  0  0  0  0  0
   13.0932  -12.3534    0.0000 N    0  0  0  0  0  0  0  0  0  0  0  0
   12.5132  -13.5485    0.0000 C    0  0  0  0  0  0  0  0  0  0  0  0
   12.1396  -11.4294    0.0000 C    0  0  0  0  0  0  0  0  0  0  0  0
   11.1941  -13.3577    0.0000 C    0  0  0  0  0  0  0  0  0  0  0  0
   10.9608  -12.0484    0.0000 C    0  0  0  0  0  0  0  0  0  0  0  0
   15.0191   -7.4934    0.0000 P    0  0  0  0  0  0  0  0  0  0  0  0
   15.1588   -6.1372    0.0000 C    0  0  0  0  0  0  0  0  0  0  0  0
   16.3727   -5.5937    0.0000 C    0  0  0  0  0  0  0  0  0  0  0  0
   14.0211   -6.0731    0.0000 C    0  0  0  0  0  0  0  0  0  0  0  0
   14.5811   -4.8668    0.0000 C    0  0  0  0  0  0  0  0  0  0  0  0
   13.3160   -7.2108    0.0000 C    0  0  0  0  0  0  0  0  0  0  0  0
   12.8485   -5.9657    0.0000 C    0  0  0  0  0  0  0  0  0  0  0  0
  2  3  1  0  0  0  0
  2  4  2  0  0  0  0
  3  5  2  0  0  0  0
  4  6  1  0  0  0  0
  5  7  1  0  0  0  0
  6  7  2  0  0  0  0
  1  7  1  0  0  0  0
  5  8  1  0  0  0  0
  6  9  1  0  0  0  0
  8 10  1  0  0  0  0
  9 11  1  0  0  0  0
 12 13  1  0  0  0  0
 12 14  1  0  0  0  0
 13 15  2  0  0  0  0
 14 16  2  0  0  0  0
 15 16  1  0  0  0  0
 10 12  1  0  0  0  0
 17 18  1  0  0  0  0
 17 19  1  0  0  0  0
 18 20  2  0  0  0  0
 19 21  2  0  0  0  0
 20 21  1  0  0  0  0
 10 17  1  0  0  0  0
 22 23  1  0  0  0  0
 22 24  1  0  0  0  0
 23 25  2  0  0  0  0
 24 26  2  0  0  0  0
 25 26  1  0  0  0  0
 11 22  1  0  0  0  0
 27 28  1  0  0  0  0
 27 29  1  0  0  0  0
 28 30  2  0  0  0  0
 29 31  2  0  0  0  0
 30 31  1  0  0  0  0
 11 27  1  0  0  0  0
  1 32  1  0  0  0  0
 32 33  1  0  0  0  0
 33 34  1  0  0  0  0
 32 35  1  0  0  0  0
 35 36  1  0  0  0  0
 32 37  1  0  0  0  0
 37 38  1  0  0  0  0
M  END
> <NMREDATA_VERSION>
1.1

> <NMREDATA_LEVEL>
0

> <NMREDATA_SOLVENT>
C6D6

> <NMREDATA_TEMPERATURE>
295

> <NMREDATA_FORMULA>
C30H39N4P3Rh

> <NMREDATA_SMILES>
CCP([Rh]c1c(cccc1CP(n1cccc1)n1cccc1)CP(n1cccc1)n1cccc1)(CC)CC

> <NMREDATA_ASSIGNMENT>
Rh1, -781.00, 1

> <NMREDATA_1D_103Rh>
-781.00, L=Rh1

$$$$
