
  ACD/LABS02122411212D

 18 17  0  0  0  0  0  0  0  0  1 V2000
   19.9114   -6.2577    0.0000 Rh   0  0  0  0  0  0  0  0  0  0  0  0
   21.2414   -6.2577    0.0000 C    0  0  0  0  0  0  0  0  0  0  0  0
   21.9064   -5.1059    0.0000 C    0  0  0  0  0  0  0  0  0  0  0  0
   23.2364   -5.1059    0.0000 C    0  0  0  0  0  0  0  0  0  0  0  0
   23.9014   -6.2577    0.0000 C    0  0  0  0  0  0  0  0  0  0  0  0
   21.9064   -7.4095    0.0000 O    0  0  0  0  0  0  0  0  0  0  0  0
   23.9014   -3.9541    0.0000 O    0  0  0  0  0  0  0  0  0  0  0  0
   25.2314   -6.2577    0.0000 F    0  0  0  0  0  0  0  0  0  0  0  0
   14.4537   -3.7176    0.0000 C    0  0  0  0  0  0  0  0  0  0  0  0
   13.8929   -9.4061    0.0000 C    0  0  0  0  0  0  0  0  0  0  0  0
   10.8964   -9.3421    0.0000 C    0  0  0  0  0  0  0  0  0  0  0  0
   11.9380   -3.7176    0.0000 C    0  0  0  0  0  0  0  0  0  0  0  0
   11.0086   -2.6119    0.0000 H    0  0  0  0  0  0  0  0  0  0  0  0
   11.4572   -4.8553    0.0000 C    0  0  0  0  0  0  0  0  0  0  0  0
   10.3035   -8.1723    0.0000 H    0  0  0  0  0  0  0  0  0  0  0  0
   10.0631  -10.3355    0.0000 C    0  0  0  0  0  0  0  0  0  0  0  0
   14.9024   -4.7752    0.0000 C    0  0  0  0  0  0  0  0  0  0  0  0
   15.0947  -10.5759    0.0000 C    0  0  0  0  0  0  0  0  0  0  0  0
  1  2  1  0  0  0  0
  2  3  1  0  0  0  0
  3  4  1  0  0  0  0
  4  5  1  0  0  0  0
  2  6  2  0  0  0  0
  4  7  2  0  0  0  0
  5  8  1  0  0  0  0
  1  9  1  0  0  0  0
  1 10  1  0  0  0  0
 10 11  2  0  0  0  0
  9 12  2  0  0  0  0
 12 13  1  0  0  0  0
 12 14  1  0  0  0  0
 11 15  1  0  0  0  0
 11 16  1  0  0  0  0
  9 17  1  0  0  0  0
 10 18  1  0  0  0  0
M  END
> <NMREDATA_VERSION>
1.1

> <NMREDATA_LEVEL>
0

> <NMREDATA_SOLVENT>
DCCl3

> <NMREDATA_TEMPERATURE>
270

> <NMREDATA_FORMULA>
C12H18FO2Rh

> <NMREDATA_SMILES>
C/C=C(/[Rh](C(=O)CC(=O)CF)/C(=C/C)/C)\C

> <NMREDATA_ASSIGNMENT>
Rh1, 1644.00, 1

> <NMREDATA_1D_103Rh>
1644.00, L=Rh1

$$$$
