
  ACD/LABS03252416042D

 37 41  0  0  0  0  0  0  0  0  1 V2000
    9.5296   -6.5922    0.0000 N    0  0  0  0  0  0  0  0  0  0  0  0
   10.8596   -6.5922    0.0000 C    0  0  0  0  0  0  0  0  0  0  0  0
    8.8646   -7.7440    0.0000 C    0  0  0  0  0  0  0  0  0  0  0  0
   11.5246   -7.7440    0.0000 C    0  0  0  0  0  0  0  0  0  0  0  0
    9.5296   -8.8958    0.0000 C    0  0  0  0  0  0  0  0  0  0  0  0
   10.8596   -8.8958    0.0000 C    0  0  0  0  0  0  0  0  0  0  0  0
   11.5246   -5.4404    0.0000 C    0  0  0  0  0  0  0  0  0  0  0  0
   10.8596   -4.2886    0.0000 C    0  0  0  0  0  0  0  0  0  0  0  0
   12.8546   -5.4404    0.0000 C    0  0  0  0  0  0  0  0  0  0  0  0
   11.5246   -3.1368    0.0000 C    0  0  0  0  0  0  0  0  0  0  0  0
   13.5196   -4.2886    0.0000 N    0  0  0  0  0  0  0  0  0  0  0  0
   12.8546   -3.1368    0.0000 C    0  0  0  0  0  0  0  0  0  0  0  0
   12.8546   -7.7440    0.0000 C    0  0  0  0  0  0  0  0  0  0  0  0
   13.5196   -6.5922    0.0000 C    0  0  0  0  0  0  0  0  0  0  0  0
   13.5196   -8.8958    0.0000 C    0  0  0  0  0  0  0  0  0  0  0  0
   14.8496   -6.5922    0.0000 C    0  0  0  0  0  0  0  0  0  0  0  0
   14.8496   -8.8958    0.0000 N    0  0  0  0  0  0  0  0  0  0  0  0
   15.5146   -7.7440    0.0000 C    0  0  0  0  0  0  0  0  0  0  0  0
   11.5246  -10.0476    0.0000 C    0  0  0  0  0  0  0  0  0  0  0  0
   12.8546  -10.0476    0.0000 C    0  0  0  0  0  0  0  0  0  0  0  0
   10.8596  -11.1995    0.0000 C    0  0  0  0  0  0  0  0  0  0  0  0
   13.5196  -11.1995    0.0000 C    0  0  0  0  0  0  0  0  0  0  0  0
   11.5246  -12.3513    0.0000 C    0  0  0  0  0  0  0  0  0  0  0  0
   12.8546  -12.3513    0.0000 C    0  0  0  0  0  0  0  0  0  0  0  0
   13.5196  -13.5031    0.0000 C    0  0  0  0  0  0  0  0  0  0  0  0
   12.3678  -14.1681    0.0000 C    0  0  0  0  0  0  0  0  0  0  0  0
   14.6714  -12.8381    0.0000 C    0  0  0  0  0  0  0  0  0  0  0  0
   14.1846  -14.6549    0.0000 C    0  0  0  0  0  0  0  0  0  0  0  0
    6.5609   -5.4404    0.0000 C    0  0  0  0  0  0  0  0  0  0  0  0
    7.7128   -6.1054    0.0000 C    0  0  0  0  0  0  0  0  0  0  0  0
    5.4091   -6.1054    0.0000 C    0  0  0  0  0  0  0  0  0  0  0  0
    7.7128   -7.4354    0.0000 C    0  0  0  0  0  0  0  0  0  0  0  0
    5.4091   -7.4354    0.0000 C    0  0  0  0  0  0  0  0  0  0  0  0
    6.5609   -8.1004    0.0000 C    0  0  0  0  0  0  0  0  0  0  0  0
    8.8646   -5.4404    0.0000 Rh   0  0  0  0  0  0  0  0  0  0  0  0
   10.0164   -4.7754    0.0000 Br   0  0  0  0  0  0  0  0  0  0  0  0
    8.1996   -4.2886    0.0000 Br   0  0  0  0  0  0  0  0  0  0  0  0
  1  2  1  0  0  0  0
  1  3  2  0  0  0  0
  2  4  2  0  0  0  0
  3  5  1  0  0  0  0
  4  6  1  0  0  0  0
  5  6  2  0  0  0  0
  7  8  1  0  0  0  0
  7  9  2  0  0  0  0
  8 10  2  0  0  0  0
  9 11  1  0  0  0  0
 10 12  1  0  0  0  0
 11 12  2  0  0  0  0
  2  7  1  0  0  0  0
 13 14  1  0  0  0  0
 13 15  2  0  0  0  0
 14 16  2  0  0  0  0
 15 17  1  0  0  0  0
 16 18  1  0  0  0  0
 17 18  2  0  0  0  0
  4 13  1  0  0  0  0
 19 20  1  0  0  0  0
 19 21  2  0  0  0  0
 20 22  2  0  0  0  0
 21 23  1  0  0  0  0
 22 24  1  0  0  0  0
 23 24  2  0  0  0  0
  6 19  1  0  0  0  0
 25 26  1  0  0  0  0
 25 27  1  0  0  0  0
 25 28  1  0  0  0  0
 24 25  1  0  0  0  0
 29 30  1  0  0  0  0
 29 31  2  0  0  0  0
 30 32  2  0  0  0  0
 31 33  1  0  0  0  0
 32 34  1  0  0  0  0
 33 34  2  0  0  0  0
 35 36  1  0  0  0  0
 30 35  1  0  0  0  0
  1 35  1  0  0  0  0
 35 37  1  0  0  0  0
M  END
> <NMREDATA_VERSION>
1.1

> <NMREDATA_LEVEL>
0

> <NMREDATA_SOLVENT>
CD2Cl2

> <NMREDATA_TEMPERATURE>
298

> <NMREDATA_FORMULA>
C31H29Br2N3Rh

> <NMREDATA_SMILES>
CC(c1ccc(cc1)C1=CC=N(C(=C1c1cccnc1)c1cccnc1)[Rh](c1ccccc1)(Br)Br)(C)C

> <NMREDATA_ASSIGNMENT>
Rh35, 3548.00, 35

> <NMREDATA_1D_103Rh>
3548.00, L=Rh35

$$$$
