
  ACD/LABS02122409452D

 19 19  0  0  0  0  0  0  0  0  2 V2000
   17.5580   -4.5775    0.0000 Rh   0  0  0  0  0  0  0  0  0  0  0  0
   16.8929   -3.4256    0.0000 Cl   0  0  0  0  0  0  0  0  0  0  0  0
   18.8880   -4.5775    0.0000 C    0  0  0  0  0  0  0  0  0  0  0  0
   19.5530   -5.7293    0.0000 C    0  5  0  0  0  0  0  0  0  0  0  0
   20.8830   -5.7293    0.0000 C    0  0  0  0  0  0  0  0  0  0  0  0
   20.8830   -4.3993    0.0000 C    0  0  0  0  0  0  0  0  0  0  0  0
   20.8830   -7.0593    0.0000 C    0  0  0  0  0  0  0  0  0  0  0  0
   22.2130   -5.7293    0.0000 C    0  0  0  0  0  0  0  0  0  0  0  0
   22.8780   -4.5775    0.0000 N    0  0  0  0  0  0  0  0  0  0  0  0
   22.2130   -3.4256    0.0000 C    0  0  0  0  0  0  0  0  0  0  0  0
   24.2080   -4.5775    0.0000 C    0  0  0  0  0  0  0  0  0  0  0  0
   15.9119   -6.2174    0.0000 C    0  0  0  0  0  0  0  0  0  0  0  0
   14.7101   -7.3230    0.0000 N    0  3  0  0  0  0  0  0  0  0  0  0
   13.7313   -8.2235    0.0000 C    0  0  0  0  0  0  0  0  0  0  0  0
   14.0218   -9.5214    0.0000 C    0  0  0  0  0  0  0  0  0  0  0  0
   12.4620   -7.8261    0.0000 C    0  0  0  0  0  0  0  0  0  0  0  0
   13.0429  -10.4219    0.0000 C    0  0  0  0  0  0  0  0  0  0  0  0
   11.4832   -8.7266    0.0000 C    0  0  0  0  0  0  0  0  0  0  0  0
   11.7737  -10.0245    0.0000 N    0  0  0  0  0  0  0  0  0  0  0  0
  1  2  1  0  0  0  0
  1  3  1  0  0  0  0
  3  4  1  0  0  0  0
  4  5  1  0  0  0  0
  5  6  1  0  0  0  0
  5  7  1  0  0  0  0
  5  8  1  0  0  0  0
  8  9  1  0  0  0  0
  9 10  1  0  0  0  0
  9 11  1  0  0  0  0
  1 12  1  0  0  0  0
 12 13  3  0  0  0  0
 14 15  1  0  0  0  0
 14 16  2  0  0  0  0
 15 17  2  0  0  0  0
 16 18  1  0  0  0  0
 17 19  1  0  0  0  0
 18 19  2  0  0  0  0
 13 14  1  0  0  0  0
M  END
> <NMREDATA_VERSION>
1.1

> <NMREDATA_LEVEL>
0

> <NMREDATA_SOLVENT>
CD2Cl2

> <NMREDATA_TEMPERATURE>
298

> <NMREDATA_FORMULA>
C14H23ClN3Rh

> <NMREDATA_SMILES>
CN(CC(CC[Rh](C#Nc1ccncc1)Cl)(C)C)C

> <NMREDATA_ASSIGNMENT>
Rh1, 2029.00, 1

> <NMREDATA_1D_103Rh>
2029.00, L=Rh1

$$$$
