
  ACD/LABS03282419102D

 62 70  0  0  0  0  0  0  0  0  1 V2000
   13.8225  -14.4509    0.0000 C    0  0  0  0  0  0  0  0  0  0  0  0
   12.9581  -15.4724    0.0000 C    0  0  0  0  0  0  0  0  0  0  0  0
   15.1287  -14.6906    0.0000 C    0  0  0  0  0  0  0  0  0  0  0  0
   13.4102  -16.7170    0.0000 C    0  0  0  0  0  0  0  0  0  0  0  0
   15.5808  -15.9352    0.0000 C    0  0  0  0  0  0  0  0  0  0  0  0
   14.7239  -16.9524    0.0000 C    0  0  0  0  0  0  0  0  0  0  0  0
   16.9987  -12.8221    0.0000 C    0  0  0  0  0  0  0  0  0  0  0  0
   16.7730  -11.5082    0.0000 C    0  0  0  0  0  0  0  0  0  0  0  0
   18.2461  -13.2796    0.0000 C    0  0  0  0  0  0  0  0  0  0  0  0
   17.7871  -10.6568    0.0000 C    0  0  0  0  0  0  0  0  0  0  0  0
   19.2681  -12.4237    0.0000 C    0  0  0  0  0  0  0  0  0  0  0  0
   19.0420  -11.1100    0.0000 C    0  0  0  0  0  0  0  0  0  0  0  0
   17.0027  -14.5304    0.0000 C    0  0  0  0  0  0  0  0  0  0  0  0
   18.2463  -14.0783    0.0000 C    0  0  0  0  0  0  0  0  0  0  0  0
   16.7628  -15.8361    0.0000 C    0  0  0  0  0  0  0  0  0  0  0  0
   19.2680  -14.9431    0.0000 C    0  0  0  0  0  0  0  0  0  0  0  0
   17.7845  -16.7010    0.0000 C    0  0  0  0  0  0  0  0  0  0  0  0
   19.0287  -16.2490    0.0000 C    0  0  0  0  0  0  0  0  0  0  0  0
   13.7233   -9.1524    0.0000 C    0  0  0  0  0  0  0  0  0  0  0  0
   12.4221   -8.9204    0.0000 C    0  0  0  0  0  0  0  0  0  0  0  0
   14.5844   -8.1434    0.0000 C    0  0  0  0  0  0  0  0  0  0  0  0
   11.9653   -7.6685    0.0000 C    0  0  0  0  0  0  0  0  0  0  0  0
   14.1277   -6.8909    0.0000 C    0  0  0  0  0  0  0  0  0  0  0  0
   12.8218   -6.6516    0.0000 C    0  0  0  0  0  0  0  0  0  0  0  0
   13.7745  -11.7953    0.0000 Rh   0  0  0  0  0  0  0  0  0  0  0  0
   12.6180  -12.4529    0.0000 C    0  0  0  0  0  0  0  0  0  0  0  0
   11.5917  -13.3014    0.0000 N    0  0  0  0  0  0  0  0  0  0  0  0
   14.9311  -11.1380    0.0000 H    0  0  0  0  0  0  0  0  0  0  0  0
   13.5397  -13.1090    0.0000 H    0  0  0  0  0  0  0  0  0  0  0  0
   15.3037   -7.6152    0.0000 P    0  0  0  0  0  0  0  0  0  0  0  0
   11.5608   -9.9301    0.0000 P    0  0  0  0  0  0  0  0  0  0  0  0
   15.9856  -13.6735    0.0000 P    0  0  0  0  0  0  0  0  0  0  0  0
   19.5060  -10.3707    0.0000 C    0  0  0  0  0  0  0  0  0  0  0  0
   18.2468   -9.9100    0.0000 C    0  0  0  0  0  0  0  0  0  0  0  0
   20.5201   -9.5193    0.0000 C    0  0  0  0  0  0  0  0  0  0  0  0
   18.0254   -8.6037    0.0000 C    0  0  0  0  0  0  0  0  0  0  0  0
   20.2944   -8.2054    0.0000 C    0  0  0  0  0  0  0  0  0  0  0  0
   19.0515   -7.7558    0.0000 C    0  0  0  0  0  0  0  0  0  0  0  0
   10.8210   -5.3488    0.0000 C    0  0  0  0  0  0  0  0  0  0  0  0
   11.8377   -6.2060    0.0000 C    0  0  0  0  0  0  0  0  0  0  0  0
   11.0399   -4.0442    0.0000 C    0  0  0  0  0  0  0  0  0  0  0  0
   13.0817   -5.7537    0.0000 C    0  0  0  0  0  0  0  0  0  0  0  0
   12.2921   -3.5877    0.0000 C    0  0  0  0  0  0  0  0  0  0  0  0
   13.3092   -4.4446    0.0000 C    0  0  0  0  0  0  0  0  0  0  0  0
   17.5280   -4.8867    0.0000 C    0  0  0  0  0  0  0  0  0  0  0  0
   17.0705   -6.1342    0.0000 C    0  0  0  0  0  0  0  0  0  0  0  0
   16.6719   -3.8654    0.0000 C    0  0  0  0  0  0  0  0  0  0  0  0
   15.7612   -6.3677    0.0000 C    0  0  0  0  0  0  0  0  0  0  0  0
   15.3705   -4.0944    0.0000 C    0  0  0  0  0  0  0  0  0  0  0  0
   14.9051   -5.3464    0.0000 C    0  0  0  0  0  0  0  0  0  0  0  0
    8.7022  -12.0924    0.0000 C    0  0  0  0  0  0  0  0  0  0  0  0
    9.3679  -10.9397    0.0000 C    0  0  0  0  0  0  0  0  0  0  0  0
    9.3595  -13.2490    0.0000 C    0  0  0  0  0  0  0  0  0  0  0  0
   10.7037  -10.9468    0.0000 C    0  0  0  0  0  0  0  0  0  0  0  0
   10.6862  -13.2404    0.0000 C    0  0  0  0  0  0  0  0  0  0  0  0
   11.3612  -12.1038    0.0000 C    0  0  0  0  0  0  0  0  0  0  0  0
   10.1898   -7.9458    0.0000 C    0  0  0  0  0  0  0  0  0  0  0  0
   10.4079   -9.2640    0.0000 C    0  0  0  0  0  0  0  0  0  0  0  0
    8.9423   -7.4882    0.0000 C    0  0  0  0  0  0  0  0  0  0  0  0
    9.3895  -10.1079    0.0000 C    0  0  0  0  0  0  0  0  0  0  0  0
    7.9164   -8.3365    0.0000 C    0  0  0  0  0  0  0  0  0  0  0  0
    8.1378   -9.6429    0.0000 C    0  0  0  0  0  0  0  0  0  0  0  0
  1  2  1  0  0  0  0
  1  3  2  0  0  0  0
  2  4  2  0  0  0  0
  3  5  1  0  0  0  0
  4  6  1  0  0  0  0
  5  6  2  0  0  0  0
  7  8  1  0  0  0  0
  7  9  2  0  0  0  0
  8 10  2  0  0  0  0
  9 11  1  0  0  0  0
 10 12  1  0  0  0  0
 11 12  2  0  0  0  0
 13 14  1  0  0  0  0
 13 15  2  0  0  0  0
 14 16  2  0  0  0  0
 15 17  1  0  0  0  0
 16 18  1  0  0  0  0
 17 18  2  0  0  0  0
 19 20  1  0  0  0  0
 19 21  2  0  0  0  0
 20 22  2  0  0  0  0
 21 23  1  0  0  0  0
 22 24  1  0  0  0  0
 23 24  2  0  0  0  0
 26 27  3  0  0  0  0
 25 26  1  0  0  0  0
 25 28  1  0  0  0  0
 25 29  1  0  0  0  0
 25 30  1  0  0  0  0
 25 31  1  0  0  0  0
 25 32  1  0  0  0  0
 33 34  1  0  0  0  0
 33 35  2  0  0  0  0
 34 36  2  0  0  0  0
 35 37  1  0  0  0  0
 36 38  1  0  0  0  0
 37 38  2  0  0  0  0
 30 36  1  0  0  0  0
 39 40  1  0  0  0  0
 39 41  2  0  0  0  0
 40 42  2  0  0  0  0
 41 43  1  0  0  0  0
 42 44  1  0  0  0  0
 43 44  2  0  0  0  0
 30 42  1  0  0  0  0
 45 46  1  0  0  0  0
 45 47  2  0  0  0  0
 46 48  2  0  0  0  0
 47 49  1  0  0  0  0
 48 50  1  0  0  0  0
 49 50  2  0  0  0  0
 30 48  1  0  0  0  0
 51 52  1  0  0  0  0
 51 53  2  0  0  0  0
 52 54  2  0  0  0  0
 53 55  1  0  0  0  0
 54 56  1  0  0  0  0
 55 56  2  0  0  0  0
 31 54  1  0  0  0  0
 57 58  1  0  0  0  0
 57 59  2  0  0  0  0
 58 60  2  0  0  0  0
 59 61  1  0  0  0  0
 60 62  1  0  0  0  0
 61 62  2  0  0  0  0
 31 58  1  0  0  0  0
 20 31  1  0  0  0  0
 13 32  1  0  0  0  0
  7 32  1  0  0  0  0
  3 32  1  0  0  0  0
M  END
> <NMREDATA_VERSION>
1.1

> <NMREDATA_LEVEL>
0

> <NMREDATA_SOLVENT>
DCCl3

> <NMREDATA_TEMPERATURE>
247

> <NMREDATA_FORMULA>
C55H50NP3Rh

> <NMREDATA_SMILES>
N#C[RhH2](P(c1ccccc1)(c1ccccc1)c1ccccc1)(P(c1ccccc1)(c1ccccc1)c1ccccc1)P(c1ccccc1)(c1ccccc1)c1ccccc1

> <NMREDATA_ASSIGNMENT>
Rh25, -581.00, 25

> <NMREDATA_1D_103Rh>
-581.00, L=Rh25

$$$$
