
  ACD/LABS02232411262D

 43 47  0  0  0  0  0  0  0  0  2 V2000
   24.8228   -7.8353    0.0000 Cl   0  0  0  0  0  0  0  0  0  0  0  0
   25.5468   -6.5899    0.0000 O    0  0  0  0  0  0  0  0  0  0  0  0
   26.0682   -8.5497    0.0000 O    0  0  0  0  0  0  0  0  0  0  0  0
   23.5774   -7.1209    0.0000 O    0  0  0  0  0  0  0  0  0  0  0  0
   24.1084   -9.0807    0.0000 O    0  5  0  0  0  0  0  0  0  0  0  0
    9.0708   -5.1584    0.0000 C    0  0  0  0  0  0  0  0  0  0  0  0
    7.9183   -5.8228    0.0000 C    0  0  0  0  0  0  0  0  0  0  0  0
   10.2229   -5.8228    0.0000 C    0  0  0  0  0  0  0  0  0  0  0  0
    7.9183   -7.1525    0.0000 C    0  0  0  0  0  0  0  0  0  0  0  0
   10.2229   -7.1525    0.0000 C    0  0  0  0  0  0  0  0  0  0  0  0
    9.0708   -7.8170    0.0000 C    0  0  0  0  0  0  0  0  0  0  0  0
   10.2229   -9.8021    0.0000 C    0  0  0  0  0  0  0  0  0  0  0  0
   10.2229  -11.1314    0.0000 C    0  0  0  0  0  0  0  0  0  0  0  0
   11.3750   -9.1372    0.0000 C    0  0  0  0  0  0  0  0  0  0  0  0
   11.3750  -11.7962    0.0000 C    0  0  0  0  0  0  0  0  0  0  0  0
   12.5271   -9.8021    0.0000 C    0  0  0  0  0  0  0  0  0  0  0  0
   12.5271  -11.1314    0.0000 C    0  0  0  0  0  0  0  0  0  0  0  0
   11.3750   -7.8170    0.0000 P    0  0  0  0  0  0  0  0  0  0  0  0
   12.5271   -7.1525    0.0000 C    0  0  0  0  0  0  0  0  0  0  0  0
   13.6793   -7.8170    0.0000 C    0  0  0  0  0  0  0  0  0  0  0  0
   14.8136   -7.1525    0.0000 C    0  0  0  0  0  0  0  0  0  0  0  0
   20.5746   -5.1584    0.0000 C    0  0  0  0  0  0  0  0  0  0  0  0
   20.5746   -6.4877    0.0000 C    0  0  0  0  0  0  0  0  0  0  0  0
   19.4221   -4.4935    0.0000 C    0  0  0  0  0  0  0  0  0  0  0  0
   19.4221   -7.1525    0.0000 C    0  0  0  0  0  0  0  0  0  0  0  0
   18.2700   -5.1584    0.0000 C    0  0  0  0  0  0  0  0  0  0  0  0
   18.2700   -6.4877    0.0000 C    0  0  0  0  0  0  0  0  0  0  0  0
   16.4530   -3.7049    0.0000 C    0  0  0  0  0  0  0  0  0  0  0  0
   17.1179   -4.8570    0.0000 C    0  0  0  0  0  0  0  0  0  0  0  0
   15.1237   -3.7049    0.0000 C    0  0  0  0  0  0  0  0  0  0  0  0
   16.4530   -6.0004    0.0000 C    0  0  0  0  0  0  0  0  0  0  0  0
   14.4588   -4.8570    0.0000 C    0  0  0  0  0  0  0  0  0  0  0  0
   15.1237   -6.0004    0.0000 C    0  0  0  0  0  0  0  0  0  0  0  0
   13.7149  -11.7606    0.0000 C    0  0  0  0  0  0  0  0  0  0  0  0
   14.0605  -13.0461    0.0000 C    0  0  0  0  0  0  0  0  0  0  0  0
   16.4886  -12.0355    0.0000 C    0  0  0  0  0  0  0  0  0  0  0  0
   18.7841  -13.3648    0.0000 C    0  0  0  0  0  0  0  0  0  0  0  0
   19.4490  -12.2127    0.0000 C    0  0  0  0  0  0  0  0  0  0  0  0
   16.1429  -10.7592    0.0000 C    0  0  0  0  0  0  0  0  0  0  0  0
   17.1179   -9.4477    0.0000 C    0  0  0  0  0  0  0  0  0  0  0  0
   17.7827   -8.3047    0.0000 Rh   0  3  0  0  0  0  0  0  0  0  0  0
   17.1179   -7.1525    0.0000 P    0  0  0  0  0  0  0  0  0  0  0  0
   15.9657   -7.8170    0.0000 C    0  0  0  0  0  0  0  0  0  0  0  0
  1  2  2  0  0  0  0
  1  3  2  0  0  0  0
  1  4  2  0  0  0  0
  1  5  1  0  0  0  0
  6  7  1  0  0  0  0
  6  8  2  0  0  0  0
  7  9  2  0  0  0  0
  8 10  1  0  0  0  0
  9 11  1  0  0  0  0
 10 11  2  0  0  0  0
 12 13  1  0  0  0  0
 12 14  2  0  0  0  0
 13 15  2  0  0  0  0
 14 16  1  0  0  0  0
 15 17  1  0  0  0  0
 16 17  2  0  0  0  0
 14 18  1  0  0  0  0
 10 18  1  0  0  0  0
 18 19  1  0  0  0  0
 19 20  1  0  0  0  0
 22 23  1  0  0  0  0
 22 24  2  0  0  0  0
 23 25  2  0  0  0  0
 24 26  1  0  0  0  0
 25 27  1  0  0  0  0
 26 27  2  0  0  0  0
 28 29  1  0  0  0  0
 28 30  2  0  0  0  0
 29 31  2  0  0  0  0
 30 32  1  0  0  0  0
 31 33  1  0  0  0  0
 32 33  2  0  0  0  0
 34 35  2  0  0  0  0
 35 36  1  0  0  0  0
 36 37  1  0  0  0  0
 37 38  2  0  0  0  0
 38 39  1  0  0  0  0
 39 34  1  0  0  0  0
 39 40  1  0  0  0  0
 40 36  1  0  0  0  0
 41 42  1  0  0  0  0
 42 43  1  0  0  0  0
 40 41  1  0  0  0  0
 31 42  1  0  0  0  0
 27 42  1  0  0  0  0
 21 43  1  0  0  0  0
 20 21  1  0  0  0  0
M  END
> <NMREDATA_VERSION>
1.1

> <NMREDATA_LEVEL>
0

> <NMREDATA_SOLVENT>
CD2Cl2

> <NMREDATA_TEMPERATURE>
298

> <NMREDATA_FORMULA>
C35H37ClO4P2Rh

> <NMREDATA_SMILES>
c1ccc(cc1)P(c1ccccc1)CCCCP(c1ccccc1)(c1ccccc1)[Rh]C1C2C=CC1C=C2.O[Cl](=O)(=O)=O

> <NMREDATA_ASSIGNMENT>
Rh41, -210.00, 41

> <NMREDATA_1D_103Rh>
-210.00, L=Rh41

$$$$
