
  ACD/LABS04022410432D

 34 30  0  0  0  0  0  0  0  0  2 V2000
   14.5178  -17.4022    0.0000 Rh   0  0  0  0  0  0  0  0  0  0  0  0
   13.0052  -16.5289    0.0000 O    0  3  0  0  0  0  0  0  0  0  0  0
   14.5178  -15.6555    0.0000 O    0  3  0  0  0  0  0  0  0  0  0  0
   16.0305  -16.5289    0.0000 O    0  3  0  0  0  0  0  0  0  0  0  0
   14.5178  -19.1488    0.0000 O    0  0  0  0  0  0  0  0  0  0  0  0
   13.0052  -18.2755    0.0000 O    0  0  0  0  0  0  0  0  0  0  0  0
   16.0305  -18.2755    0.0000 O    0  0  0  0  0  0  0  0  0  0  0  0
   11.4926  -17.4022    0.0000 H    0  0  0  0  0  0  0  0  0  0  0  0
   13.0052  -14.7822    0.0000 H    0  0  0  0  0  0  0  0  0  0  0  0
   11.4926  -13.9089    0.0000 H    0  0  0  0  0  0  0  0  0  0  0  0
   16.0305  -14.7822    0.0000 H    0  0  0  0  0  0  0  0  0  0  0  0
   16.0305  -13.0356    0.0000 H    0  0  0  0  0  0  0  0  0  0  0  0
   17.5431  -17.4022    0.0000 H    0  0  0  0  0  0  0  0  0  0  0  0
   16.0305  -20.0221    0.0000 H    0  0  0  0  0  0  0  0  0  0  0  0
   13.0052  -20.0221    0.0000 H    0  0  0  0  0  0  0  0  0  0  0  0
   13.0052  -21.7687    0.0000 H    0  0  0  0  0  0  0  0  0  0  0  0
    9.9800  -16.5289    0.0000 H    0  0  0  0  0  0  0  0  0  0  0  0
   19.0557  -16.5289    0.0000 H    0  0  0  0  0  0  0  0  0  0  0  0
   16.0305  -21.7687    0.0000 H    0  0  0  0  0  0  0  0  0  0  0  0
   22.7622  -16.0001    0.0000 Cl   0  0  0  0  0  0  0  0  0  0  0  0
   21.1802  -15.0867    0.0000 O    0  0  0  0  0  0  0  0  0  0  0  0
   23.6756  -14.4181    0.0000 O    0  0  0  0  0  0  0  0  0  0  0  0
   21.8489  -17.5821    0.0000 O    0  5  0  0  0  0  0  0  0  0  0  0
   24.3442  -16.9134    0.0000 O    0  0  0  0  0  0  0  0  0  0  0  0
   26.3196  -13.8689    0.0000 Cl   0  0  0  0  0  0  0  0  0  0  0  0
   24.7376  -12.9555    0.0000 O    0  0  0  0  0  0  0  0  0  0  0  0
   27.2330  -12.2869    0.0000 O    0  0  0  0  0  0  0  0  0  0  0  0
   25.4062  -15.4509    0.0000 O    0  5  0  0  0  0  0  0  0  0  0  0
   27.9016  -14.7822    0.0000 O    0  0  0  0  0  0  0  0  0  0  0  0
   30.1333  -13.8689    0.0000 Cl   0  0  0  0  0  0  0  0  0  0  0  0
   28.5513  -12.9555    0.0000 O    0  0  0  0  0  0  0  0  0  0  0  0
   31.0467  -12.2869    0.0000 O    0  0  0  0  0  0  0  0  0  0  0  0
   29.2199  -15.4509    0.0000 O    0  5  0  0  0  0  0  0  0  0  0  0
   31.7153  -14.7822    0.0000 O    0  0  0  0  0  0  0  0  0  0  0  0
  1  2  1  0  0  0  0
  1  3  1  0  0  0  0
  1  4  1  0  0  0  0
  1  5  1  0  0  0  0
  1  6  1  0  0  0  0
  1  7  1  0  0  0  0
  2  8  1  0  0  0  0
  2  9  1  0  0  0  0
  3 10  1  0  0  0  0
  3 11  1  0  0  0  0
  4 12  1  0  0  0  0
  4 13  1  0  0  0  0
  5 14  1  0  0  0  0
  5 15  1  0  0  0  0
  6 16  1  0  0  0  0
  6 17  1  0  0  0  0
  7 18  1  0  0  0  0
  7 19  1  0  0  0  0
 20 21  2  0  0  0  0
 20 22  2  0  0  0  0
 20 23  1  0  0  0  0
 20 24  2  0  0  0  0
 25 26  2  0  0  0  0
 25 27  2  0  0  0  0
 25 28  1  0  0  0  0
 25 29  2  0  0  0  0
 30 31  2  0  0  0  0
 30 32  2  0  0  0  0
 30 33  1  0  0  0  0
 30 34  2  0  0  0  0
M  END
> <NMREDATA_VERSION>
1.1

> <NMREDATA_LEVEL>
0

> <NMREDATA_SOLVENT>
HClO4 (aq)

> <NMREDATA_TEMPERATURE>
276

> <NMREDATA_FORMULA>
Cl3H15O18Rh

> <NMREDATA_SMILES>
[OH2][Rh]([OH2])([OH2])([OH2])([OH2])[OH2].O[Cl](=O)(=O)=O.O[Cl](=O)(=O)=O.O[Cl](=O)(=O)=O

> <NMREDATA_ASSIGNMENT>
Rh1, 9866.00, 1

> <NMREDATA_1D_103Rh>
9866.00, L=Rh1

$$$$
