
  ACD/LABS04032410482D

 32 32  0  0  0  0  0  0  0  0  2 V2000
   13.3481  -15.5113    0.0000 Rh   0  2  0  0  0  0  0  0  0  0  0  0
   12.2264  -13.9410    0.0000 Cl   0  0  0  0  0  0  0  0  0  0  0  0
   14.5980  -16.9855    0.0000 Cl   0  0  0  0  0  0  0  0  0  0  0  0
   14.8223  -14.5499    0.0000 Sb   0  5  0  0  0  0  0  0  0  0  0  0
   11.7457  -16.5048    0.0000 Sb   0  5  0  0  0  0  0  0  0  0  0  0
   16.5435  -15.4227    0.0000 C    0  0  0  0  0  0  0  0  0  0  0  0
   14.7176  -12.6229    0.0000 C    0  0  0  0  0  0  0  0  0  0  0  0
   10.0449  -15.5929    0.0000 C    0  0  0  0  0  0  0  0  0  0  0  0
   11.8063  -18.4337    0.0000 C    0  0  0  0  0  0  0  0  0  0  0  0
   16.4387  -13.4957    0.0000 C    0  0  0  0  0  0  0  0  0  0  0  0
   16.3340  -11.5687    0.0000 C    0  0  0  0  0  0  0  0  0  0  0  0
   18.1600  -14.3685    0.0000 C    0  0  0  0  0  0  0  0  0  0  0  0
   17.9506  -10.5145    0.0000 C    0  0  0  0  0  0  0  0  0  0  0  0
   19.7765  -13.3143    0.0000 C    0  0  0  0  0  0  0  0  0  0  0  0
   19.6717  -11.3873    0.0000 C    0  0  0  0  0  0  0  0  0  0  0  0
   10.1055  -17.5217    0.0000 C    0  0  0  0  0  0  0  0  0  0  0  0
   10.1661  -19.4506    0.0000 C    0  0  0  0  0  0  0  0  0  0  0  0
    8.4046  -16.6097    0.0000 C    0  0  0  0  0  0  0  0  0  0  0  0
    8.5258  -20.4675    0.0000 C    0  0  0  0  0  0  0  0  0  0  0  0
    6.7645  -17.6266    0.0000 C    0  0  0  0  0  0  0  0  0  0  0  0
    6.8251  -19.5555    0.0000 C    0  0  0  0  0  0  0  0  0  0  0  0
   18.7322  -15.5594    0.0000 Sb   0  0  0  0  0  0  0  0  0  0  0  0
   11.7136  -19.9981    0.0000 Sb   0  0  0  0  0  0  0  0  0  0  0  0
   20.4147  -15.5113    0.0000 C    0  0  0  0  0  0  0  0  0  0  0  0
   18.8123  -16.4728    0.0000 C    0  0  0  0  0  0  0  0  0  0  0  0
   12.3546  -21.2159    0.0000 C    0  0  0  0  0  0  0  0  0  0  0  0
   13.0276  -19.6295    0.0000 C    0  0  0  0  0  0  0  0  0  0  0  0
   25.1498  -13.4122    0.0000 B    0  5  0  0  0  0  0  0  0  0  0  0
   25.1498  -12.1943    0.0000 F    0  0  0  0  0  0  0  0  0  0  0  0
   26.3677  -13.4122    0.0000 F    0  0  0  0  0  0  0  0  0  0  0  0
   23.9320  -13.4122    0.0000 F    0  0  0  0  0  0  0  0  0  0  0  0
   25.1498  -14.6300    0.0000 F    0  0  0  0  0  0  0  0  0  0  0  0
  1  2  1  0  0  0  0
  1  3  1  0  0  0  0
  1  4  1  0  0  0  0
  1  5  1  0  0  0  0
  4  6  1  0  0  0  0
  4  7  1  0  0  0  0
  5  8  1  0  0  0  0
  5  9  1  0  0  0  0
 10 11  1  0  0  0  0
 10 12  2  0  0  0  0
 11 13  2  0  0  0  0
 12 14  1  0  0  0  0
 13 15  1  0  0  0  0
 14 15  2  0  0  0  0
  4 10  1  0  0  0  0
 16 17  1  0  0  0  0
 16 18  2  0  0  0  0
 17 19  2  0  0  0  0
 18 20  1  0  0  0  0
 19 21  1  0  0  0  0
 20 21  2  0  0  0  0
  5 16  1  0  0  0  0
 12 22  1  0  0  0  0
 17 23  1  0  0  0  0
 22 24  1  0  0  0  0
 22 25  1  0  0  0  0
 23 26  1  0  0  0  0
 23 27  1  0  0  0  0
 28 29  1  0  0  0  0
 28 30  1  0  0  0  0
 28 31  1  0  0  0  0
 28 32  1  0  0  0  0
M  END
> <NMREDATA_VERSION>
1.1

> <NMREDATA_LEVEL>
0

> <NMREDATA_SOLVENT>
DMF-d7

> <NMREDATA_TEMPERATURE>
300

> <NMREDATA_FORMULA>
C20H34BCl2F4RhSb4

> <NMREDATA_SMILES>
F[B](F)(F)F.C[Sb](c1ccccc1[SbH]([Rh]([SbH](c1ccccc1[Sb](C)C)(C)C)(Cl)Cl)(C)C)C

> <NMREDATA_ASSIGNMENT>
Rh1, 2165.00, 1

> <NMREDATA_1D_103Rh>
2165.00, L=Rh1

$$$$
