
  ACD/LABS03152413052D

 78 89  0  0  0  0  0  0  0  0  1 V2000
   13.7308   -4.5108    0.0000 C    0  0  0  0  0  0  0  0  0  0  0  0
   13.7308   -5.8408    0.0000 C    0  0  0  0  0  0  0  0  0  0  0  0
   12.5789   -3.8458    0.0000 C    0  0  0  0  0  0  0  0  0  0  0  0
   12.5789   -6.5058    0.0000 C    0  0  0  0  0  0  0  0  0  0  0  0
   11.4271   -4.5108    0.0000 C    0  0  0  0  0  0  0  0  0  0  0  0
   11.4271   -5.8408    0.0000 C    0  0  0  0  0  0  0  0  0  0  0  0
   10.9746   -4.7992    0.0000 C    0  0  0  0  0  0  0  0  0  0  0  0
   10.9746   -6.1292    0.0000 C    0  0  0  0  0  0  0  0  0  0  0  0
    9.8227   -4.1342    0.0000 C    0  0  0  0  0  0  0  0  0  0  0  0
    9.8227   -6.7942    0.0000 C    0  0  0  0  0  0  0  0  0  0  0  0
    8.6709   -4.7992    0.0000 C    0  0  0  0  0  0  0  0  0  0  0  0
    8.6709   -6.1292    0.0000 C    0  0  0  0  0  0  0  0  0  0  0  0
    8.8114   -7.1387    0.0000 C    0  0  0  0  0  0  0  0  0  0  0  0
    8.8114   -8.4687    0.0000 C    0  0  0  0  0  0  0  0  0  0  0  0
    7.6595   -6.4737    0.0000 C    0  0  0  0  0  0  0  0  0  0  0  0
    7.6595   -9.1337    0.0000 C    0  0  0  0  0  0  0  0  0  0  0  0
    6.5077   -7.1387    0.0000 C    0  0  0  0  0  0  0  0  0  0  0  0
    6.5077   -8.4687    0.0000 C    0  0  0  0  0  0  0  0  0  0  0  0
   13.8072  -11.0331    0.0000 Rh   0  0  0  0  0  0  0  0  0  0  0  0
   13.1425   -9.8819    0.0000 S    0  0  0  0  0  0  0  0  0  0  0  0
   14.9584  -10.3685    0.0000 P    0  0  0  0  0  0  0  0  0  0  0  0
   17.6737  -15.6562    0.0000 P    0  0  0  0  0  0  0  0  0  0  0  0
   11.5964  -12.8927    0.0000 P    0  0  0  0  0  0  0  0  0  0  0  0
   14.9021   -6.8500    0.0000 C    0  0  0  0  0  0  0  0  0  0  0  0
   15.3583   -8.1010    0.0000 C    0  0  0  0  0  0  0  0  0  0  0  0
   13.5941   -6.6228    0.0000 C    0  0  0  0  0  0  0  0  0  0  0  0
   14.5065   -9.1249    0.0000 C    0  0  0  0  0  0  0  0  0  0  0  0
   12.7423   -7.6468    0.0000 C    0  0  0  0  0  0  0  0  0  0  0  0
   13.1940   -8.8899    0.0000 C    0  0  0  0  0  0  0  0  0  0  0  0
   18.4120   -8.3745    0.0000 C    0  0  0  0  0  0  0  0  0  0  0  0
   17.2648   -7.7164    0.0000 C    0  0  0  0  0  0  0  0  0  0  0  0
   18.4127   -9.7045    0.0000 C    0  0  0  0  0  0  0  0  0  0  0  0
   16.1136   -8.3811    0.0000 C    0  0  0  0  0  0  0  0  0  0  0  0
   17.2615  -10.3692    0.0000 C    0  0  0  0  0  0  0  0  0  0  0  0
   16.1096   -9.7038    0.0000 C    0  0  0  0  0  0  0  0  0  0  0  0
   17.6131  -12.6623    0.0000 C    0  0  0  0  0  0  0  0  0  0  0  0
   16.9476  -13.8138    0.0000 C    0  0  0  0  0  0  0  0  0  0  0  0
   16.9530  -11.5190    0.0000 C    0  0  0  0  0  0  0  0  0  0  0  0
   15.6176  -13.8145    0.0000 C    0  0  0  0  0  0  0  0  0  0  0  0
   15.6230  -11.5197    0.0000 C    0  0  0  0  0  0  0  0  0  0  0  0
   14.9575  -12.6711    0.0000 C    0  0  0  0  0  0  0  0  0  0  0  0
   16.8866  -17.8196    0.0000 C    0  0  0  0  0  0  0  0  0  0  0  0
   15.8739  -18.6704    0.0000 C    0  0  0  0  0  0  0  0  0  0  0  0
   16.6606  -16.5072    0.0000 C    0  0  0  0  0  0  0  0  0  0  0  0
   14.6276  -18.2131    0.0000 C    0  0  0  0  0  0  0  0  0  0  0  0
   15.4147  -16.0497    0.0000 C    0  0  0  0  0  0  0  0  0  0  0  0
   14.4019  -16.9005    0.0000 C    0  0  0  0  0  0  0  0  0  0  0  0
   18.4732  -13.4962    0.0000 C    0  0  0  0  0  0  0  0  0  0  0  0
   19.4863  -12.6452    0.0000 C    0  0  0  0  0  0  0  0  0  0  0  0
   18.6943  -14.8009    0.0000 C    0  0  0  0  0  0  0  0  0  0  0  0
   20.7404  -13.0979    0.0000 C    0  0  0  0  0  0  0  0  0  0  0  0
   19.9451  -15.2661    0.0000 C    0  0  0  0  0  0  0  0  0  0  0  0
   20.9661  -14.4105    0.0000 C    0  0  0  0  0  0  0  0  0  0  0  0
   18.5290  -16.6768    0.0000 C    0  0  0  0  0  0  0  0  0  0  0  0
   18.0717  -17.9231    0.0000 C    0  0  0  0  0  0  0  0  0  0  0  0
   19.8416  -16.4512    0.0000 C    0  0  0  0  0  0  0  0  0  0  0  0
   18.9273  -18.9441    0.0000 C    0  0  0  0  0  0  0  0  0  0  0  0
   20.6926  -17.4643    0.0000 C    0  0  0  0  0  0  0  0  0  0  0  0
   20.2399  -18.7184    0.0000 C    0  0  0  0  0  0  0  0  0  0  0  0
   11.9948  -15.1594    0.0000 C    0  0  0  0  0  0  0  0  0  0  0  0
   12.8406  -16.1644    0.0000 C    0  0  0  0  0  0  0  0  0  0  0  0
   12.4474  -13.9058    0.0000 C    0  0  0  0  0  0  0  0  0  0  0  0
   14.1458  -15.9431    0.0000 C    0  0  0  0  0  0  0  0  0  0  0  0
   13.7600  -13.6801    0.0000 C    0  0  0  0  0  0  0  0  0  0  0  0
   14.6105  -14.6925    0.0000 C    0  0  0  0  0  0  0  0  0  0  0  0
   10.7414  -11.8719    0.0000 C    0  0  0  0  0  0  0  0  0  0  0  0
   11.1983  -10.6258    0.0000 C    0  0  0  0  0  0  0  0  0  0  0  0
    9.4288  -12.0975    0.0000 C    0  0  0  0  0  0  0  0  0  0  0  0
   10.3507   -9.6002    0.0000 C    0  0  0  0  0  0  0  0  0  0  0  0
    8.5853  -11.0801    0.0000 C    0  0  0  0  0  0  0  0  0  0  0  0
    9.0383   -9.8263    0.0000 C    0  0  0  0  0  0  0  0  0  0  0  0
   10.8048  -15.0482    0.0000 C    0  0  0  0  0  0  0  0  0  0  0  0
   10.5712  -13.7401    0.0000 C    0  0  0  0  0  0  0  0  0  0  0  0
    9.7842  -15.9035    0.0000 C    0  0  0  0  0  0  0  0  0  0  0  0
    9.3249  -13.2828    0.0000 C    0  0  0  0  0  0  0  0  0  0  0  0
    8.5379  -15.4462    0.0000 C    0  0  0  0  0  0  0  0  0  0  0  0
    8.3043  -14.1382    0.0000 C    0  0  0  0  0  0  0  0  0  0  0  0
   11.8418   -8.8774    0.0000 C    0  0  0  0  0  0  0  0  0  0  0  0
  1  2  1  0  0  0  0
  1  3  2  0  0  0  0
  2  4  2  0  0  0  0
  3  5  1  0  0  0  0
  4  6  1  0  0  0  0
  5  6  2  0  0  0  0
  7  8  1  0  0  0  0
  7  9  2  0  0  0  0
  8 10  2  0  0  0  0
  9 11  1  0  0  0  0
 10 12  1  0  0  0  0
 11 12  2  0  0  0  0
 13 14  1  0  0  0  0
 13 15  2  0  0  0  0
 14 16  2  0  0  0  0
 15 17  1  0  0  0  0
 16 18  1  0  0  0  0
 17 18  2  0  0  0  0
 19 20  1  0  0  0  0
 19 21  1  0  0  0  0
 19 22  1  0  0  0  0
 19 23  1  0  0  0  0
 24 25  1  0  0  0  0
 24 26  2  0  0  0  0
 25 27  2  0  0  0  0
 26 28  1  0  0  0  0
 27 29  1  0  0  0  0
 28 29  2  0  0  0  0
 21 27  1  0  0  0  0
 30 31  1  0  0  0  0
 30 32  2  0  0  0  0
 31 33  2  0  0  0  0
 32 34  1  0  0  0  0
 33 35  1  0  0  0  0
 34 35  2  0  0  0  0
 21 35  1  0  0  0  0
 36 37  1  0  0  0  0
 36 38  2  0  0  0  0
 37 39  2  0  0  0  0
 38 40  1  0  0  0  0
 39 41  1  0  0  0  0
 40 41  2  0  0  0  0
 21 40  1  0  0  0  0
 42 43  1  0  0  0  0
 42 44  2  0  0  0  0
 43 45  2  0  0  0  0
 44 46  1  0  0  0  0
 45 47  1  0  0  0  0
 46 47  2  0  0  0  0
 22 44  1  0  0  0  0
 48 49  1  0  0  0  0
 48 50  2  0  0  0  0
 49 51  2  0  0  0  0
 50 52  1  0  0  0  0
 51 53  1  0  0  0  0
 52 53  2  0  0  0  0
 22 50  1  0  0  0  0
 54 55  1  0  0  0  0
 54 56  2  0  0  0  0
 55 57  2  0  0  0  0
 56 58  1  0  0  0  0
 57 59  1  0  0  0  0
 58 59  2  0  0  0  0
 22 54  1  0  0  0  0
 60 61  1  0  0  0  0
 60 62  2  0  0  0  0
 61 63  2  0  0  0  0
 62 64  1  0  0  0  0
 63 65  1  0  0  0  0
 64 65  2  0  0  0  0
 23 62  1  0  0  0  0
 66 67  1  0  0  0  0
 66 68  2  0  0  0  0
 67 69  2  0  0  0  0
 68 70  1  0  0  0  0
 69 71  1  0  0  0  0
 70 71  2  0  0  0  0
 23 66  1  0  0  0  0
 72 73  1  0  0  0  0
 72 74  2  0  0  0  0
 73 75  2  0  0  0  0
 74 76  1  0  0  0  0
 75 77  1  0  0  0  0
 76 77  2  0  0  0  0
 23 73  1  0  0  0  0
 20 78  1  0  0  0  0
 14 78  1  0  0  0  0
  8 78  1  0  0  0  0
  4 78  1  0  0  0  0
M  END
> <NMREDATA_VERSION>
1.1

> <NMREDATA_LEVEL>
0

> <NMREDATA_SOLVENT>
toluene-d8

> <NMREDATA_TEMPERATURE>
248

> <NMREDATA_FORMULA>
C73H63P3RhS

> <NMREDATA_SMILES>
c1ccc(cc1)C(c1ccccc1)(c1ccccc1)S[Rh](P(c1ccccc1)(c1ccccc1)c1ccccc1)(P(c1ccccc1)(c1ccccc1)c1ccccc1)P(c1ccccc1)(c1ccccc1)c1ccccc1

> <NMREDATA_ASSIGNMENT>
Rh19, -338.00, 19

> <NMREDATA_1D_103Rh>
-338.00, L=Rh19

$$$$
