
  ACD/LABS03292412592D

 16 15  0  0  0  0  0  0  0  0  1 V2000
   21.0717  -16.6568    0.0000 Rh   0  0  0  0  0  0  0  0  0  0  0  0
   21.0717  -14.8935    0.0000 Cl   0  0  0  0  0  0  0  0  0  0  0  0
   19.5553  -17.5384    0.0000 H    0  0  0  0  0  0  0  0  0  0  0  0
   22.5881  -15.7751    0.0000 H    0  0  0  0  0  0  0  0  0  0  0  0
   19.5553  -15.7751    0.0000 P    0  0  0  0  0  0  0  0  0  0  0  0
   21.0717  -20.4888    0.0000 P    0  0  0  0  0  0  0  0  0  0  0  0
   22.5881  -17.5384    0.0000 P    0  0  0  0  0  0  0  0  0  0  0  0
   23.7283  -16.1865    0.0000 C    0  0  0  0  0  0  0  0  0  0  0  0
   21.9884  -19.1840    0.0000 C    0  0  0  0  0  0  0  0  0  0  0  0
   24.1162  -18.4081    0.0000 C    0  0  0  0  0  0  0  0  0  0  0  0
   19.3438  -20.7944    0.0000 C    0  0  0  0  0  0  0  0  0  0  0  0
   22.7996  -20.7944    0.0000 C    0  0  0  0  0  0  0  0  0  0  0  0
   21.0717  -22.2521    0.0000 C    0  0  0  0  0  0  0  0  0  0  0  0
   20.1550  -14.1177    0.0000 C    0  0  0  0  0  0  0  0  0  0  0  0
   18.4151  -17.1271    0.0000 C    0  0  0  0  0  0  0  0  0  0  0  0
   18.0272  -14.8935    0.0000 C    0  0  0  0  0  0  0  0  0  0  0  0
  1  2  1  0  0  0  0
  1  3  1  0  0  0  0
  1  4  1  0  0  0  0
  1  5  1  0  0  0  0
  1  6  1  0  0  0  0
  1  7  1  0  0  0  0
  7  8  1  0  0  0  0
  7  9  1  0  0  0  0
  7 10  1  0  0  0  0
  6 11  1  0  0  0  0
  6 12  1  0  0  0  0
  6 13  1  0  0  0  0
  5 14  1  0  0  0  0
  5 15  1  0  0  0  0
  5 16  1  0  0  0  0
M  END
> <NMREDATA_VERSION>
1.1

> <NMREDATA_LEVEL>
0

> <NMREDATA_SOLVENT>
CD2Cl2

> <NMREDATA_TEMPERATURE>
312

> <NMREDATA_FORMULA>
C9H32ClP3Rh

> <NMREDATA_SMILES>
CP([RhH2](P(C)(C)C)(P(C)(C)C)Cl)(C)C

> <NMREDATA_ASSIGNMENT>
Rh1, -319.00, 1

> <NMREDATA_1D_103Rh>
-319.00, L=Rh1

$$$$
