
  ACD/LABS03072417293D

 28 33  0  0  0  0  0  0  0  0  1 V2000
    8.6771  -17.4315    0.0000 C    0  0  0  0  0  0  0  0  0  0  0  0
    7.3471  -17.4315    0.0000 C    0  0  0  0  0  0  0  0  0  0  0  0
    9.6176  -16.4911    0.0000 C    0  0  0  0  0  0  0  0  0  0  0  0
    9.6176  -15.1611    0.0000 C    0  0  0  0  0  0  0  0  0  0  0  0
    6.4067  -16.4911    0.0000 C    0  0  0  0  0  0  0  0  0  0  0  0
    8.6771  -14.2206    0.0000 C    0  0  0  0  0  0  0  0  0  0  0  0
    6.4067  -15.1611    0.0000 C    0  0  0  0  0  0  0  0  0  0  0  0
    7.3471  -14.2206    0.0000 C    0  0  0  0  0  0  0  0  0  0  0  0
   16.3890  -15.6120    0.0000 Rh   0  0  0  0  0  0  0  0  0  0  0  0
   17.6567  -13.4042    0.0000 N    0  0  0  0  0  0  0  0  0  0  0  0
   17.6567  -14.7342    0.0000 N    0  0  0  0  0  0  0  0  0  0  0  0
   16.5048  -12.7392    0.0000 B    0  0  0  0  0  0  0  0  0  0  0  0
   15.3530  -13.4042    0.0000 N    0  0  0  0  0  0  0  0  0  0  0  0
   15.3530  -14.7342    0.0000 N    0  0  0  0  0  0  0  0  0  0  0  0
   18.9215  -12.9932    0.0000 C    0  0  0  0  0  0  0  0  0  0  0  0
   19.7033  -14.0692    0.0000 C    0  0  0  0  0  0  0  0  0  0  0  0
   18.9217  -15.1452    0.0000 C    0  0  0  0  0  0  0  0  0  0  0  0
   14.0881  -12.9932    0.0000 C    0  0  0  0  0  0  0  0  0  0  0  0
   13.3064  -14.0692    0.0000 C    0  0  0  0  0  0  0  0  0  0  0  0
   14.0880  -15.1452    0.0000 C    0  0  0  0  0  0  0  0  0  0  0  0
   14.4514   -9.0351    0.0000 C    0  0  0  0  0  0  0  0  0  0  0  0
   15.5281   -8.2543    0.0000 C    0  0  0  0  0  0  0  0  0  0  0  0
   14.8613  -10.3004    0.0000 N    0  0  0  0  0  0  0  0  0  0  0  0
   16.6033   -9.0370    0.0000 C    0  0  0  0  0  0  0  0  0  0  0  0
   16.1914  -10.3016    0.0000 N    0  0  0  0  0  0  0  0  0  0  0  0
   18.0271  -11.8418    0.0000 H    0  0  0  0  0  0  0  0  0  0  0  0
   13.1868   -8.6230    0.0000 C    0  0  0  0  0  0  0  0  0  0  0  0
   17.8686   -8.6271    0.0000 C    0  0  0  0  0  0  0  0  0  0  0  0
  1  2  1  0  0  0  0
  1  3  1  0  0  0  0
  2  5  2  0  0  0  0
  3  4  2  0  0  0  0
  4  6  1  0  0  0  0
  5  7  1  0  0  0  0
  6  8  1  0  0  0  0
  7  8  1  0  0  0  0
 10 12  1  0  0  0  0
 12 13  1  0  0  0  0
 10 15  1  0  0  0  0
 10 11  1  0  0  0  0
 15 16  2  0  0  0  0
 11 17  2  0  0  0  0
 16 17  1  0  0  0  0
 13 18  1  0  0  0  0
 13 14  1  0  0  0  0
 18 19  2  0  0  0  0
 14 20  2  0  0  0  0
 19 20  1  0  0  0  0
 21 22  1  0  0  0  0
 21 23  2  0  0  0  0
 22 24  2  0  0  0  0
 23 25  1  0  0  0  0
 24 25  1  0  0  0  0
 12 25  1  0  0  0  0
 12 26  1  0  0  0  0
  9 11  1  0  0  0  0
  9 14  1  0  0  0  0
  9 23  1  0  0  0  0
 21 27  1  0  0  0  0
 24 28  1  0  0  0  0
  4  9  1  0  0  0  0
M  END
> <NMREDATA_VERSION>
1.1

> <NMREDATA_LEVEL>
0

> <NMREDATA_SOLVENT>
C6D6

> <NMREDATA_TEMPERATURE>
295

> <NMREDATA_FORMULA>
C19H28BN6Rh

> <NMREDATA_SMILES>
CC1=CC(=N2N1[BH]1N3C=CC=N3[Rh]2(N2=CC=CN12)C1=CCC=CCCC1)C

> <NMREDATA_ASSIGNMENT>
Rh9, 1942.00, 9

> <NMREDATA_1D_103Rh>
1942.00, L=Rh9

$$$$
