
  ACD/LABS03122418252D

 35 33  0  0  0  0  0  0  0  0  2 V2000
   22.0732   -8.1963    0.0000 Cl   0  0  0  0  0  0  0  0  0  0  0  0
   21.4322   -7.0861    0.0000 O    0  0  0  0  0  0  0  0  0  0  0  0
   23.1834   -7.5554    0.0000 O    0  0  0  0  0  0  0  0  0  0  0  0
   20.9630   -8.8373    0.0000 O    0  0  0  0  0  0  0  0  0  0  0  0
   22.7142   -9.3065    0.0000 O    0  5  0  0  0  0  0  0  0  0  0  0
    6.9276  -19.3230    0.0000 P    0  0  0  0  0  0  0  0  0  0  0  0
    5.5911  -18.5514    0.0000 C    0  0  0  0  0  0  0  0  0  0  0  0
    6.9265  -20.8773    0.0000 C    0  0  0  0  0  0  0  0  0  0  0  0
    4.2450  -19.3291    0.0000 C    0  0  0  0  0  0  0  0  0  0  0  0
    5.5806  -21.6560    0.0000 C    0  0  0  0  0  0  0  0  0  0  0  0
    8.2731  -18.5449    0.0000 C    0  0  0  0  0  0  0  0  0  0  0  0
    8.2742  -16.9905    0.0000 C    0  0  0  0  0  0  0  0  0  0  0  0
    9.6198  -16.2124    0.0000 C    0  0  0  0  0  0  0  0  0  0  0  0
    9.6208  -14.6581    0.0000 C    0  0  0  0  0  0  0  0  0  0  0  0
   10.9664  -13.8800    0.0000 C    0  0  0  0  0  0  0  0  0  0  0  0
   10.9675  -12.3257    0.0000 P    0  0  0  0  0  0  0  0  0  0  0  0
    9.4221  -12.3306    0.0000 C    0  0  0  0  0  0  0  0  0  0  0  0
    8.6443  -10.9844    0.0000 C    0  0  0  0  0  0  0  0  0  0  0  0
   12.5072  -12.3307    0.0000 C    0  0  0  0  0  0  0  0  0  0  0  0
   16.3433   -3.0145    0.0000 P    0  0  0  0  0  0  0  0  0  0  0  0
   14.9982   -2.2379    0.0000 C    0  0  0  0  0  0  0  0  0  0  0  0
   17.6805   -2.2308    0.0000 C    0  0  0  0  0  0  0  0  0  0  0  0
   14.9990   -0.6826    0.0000 C    0  0  0  0  0  0  0  0  0  0  0  0
   19.0263   -3.0077    0.0000 C    0  0  0  0  0  0  0  0  0  0  0  0
   16.3335   -4.5638    0.0000 C    0  0  0  0  0  0  0  0  0  0  0  0
   14.9966   -5.3469    0.0000 C    0  0  0  0  0  0  0  0  0  0  0  0
   14.9869   -6.8963    0.0000 C    0  0  0  0  0  0  0  0  0  0  0  0
   13.6500   -7.6794    0.0000 C    0  0  0  0  0  0  0  0  0  0  0  0
   13.6403   -9.2287    0.0000 C    0  0  0  0  0  0  0  0  0  0  0  0
   12.3034  -10.0118    0.0000 P    0  0  0  0  0  0  0  0  0  0  0  0
   10.9665  -10.7949    0.0000 Rh   0  3  0  0  0  0  0  0  0  0  0  0
   13.0718  -11.3526    0.0000 C    0  0  0  0  0  0  0  0  0  0  0  0
   14.6265  -11.3531    0.0000 C    0  0  0  0  0  0  0  0  0  0  0  0
   11.5349   -8.6710    0.0000 C    0  0  0  0  0  0  0  0  0  0  0  0
    9.9802   -8.6705    0.0000 C    0  0  0  0  0  0  0  0  0  0  0  0
  1  2  2  0  0  0  0
  1  3  2  0  0  0  0
  1  4  2  0  0  0  0
  1  5  1  0  0  0  0
  6  7  1  0  0  0  0
  6  8  1  0  0  0  0
  7  9  1  0  0  0  0
  8 10  1  0  0  0  0
  6 11  1  0  0  0  0
 11 12  1  0  0  0  0
 12 13  1  0  0  0  0
 13 14  1  0  0  0  0
 14 15  1  0  0  0  0
 15 16  1  0  0  0  0
 16 17  1  0  0  0  0
 17 18  1  0  0  0  0
 16 19  1  0  0  0  0
 20 21  1  0  0  0  0
 20 22  1  0  0  0  0
 21 23  1  0  0  0  0
 22 24  1  0  0  0  0
 20 25  1  0  0  0  0
 25 26  1  0  0  0  0
 26 27  1  0  0  0  0
 27 28  1  0  0  0  0
 28 29  1  0  0  0  0
 29 30  1  0  0  0  0
 30 31  1  0  0  0  0
 30 32  1  0  0  0  0
 32 33  1  0  0  0  0
 30 34  1  0  0  0  0
 34 35  1  0  0  0  0
 16 31  1  0  0  0  0
M  END
> <NMREDATA_VERSION>
1.1

> <NMREDATA_LEVEL>
0

> <NMREDATA_SOLVENT>
CD2Cl2

> <NMREDATA_TEMPERATURE>
298

> <NMREDATA_FORMULA>
C25H61ClO4P4Rh

> <NMREDATA_SMILES>
O[Cl](=O)(=O)=O.CCP(CCCCCP([Rh]P(CCCCCP(CC)CC)(CC)CC)(CC)C)CC

> <NMREDATA_ASSIGNMENT>
Rh31, -401.00, 31

> <NMREDATA_1D_103Rh>
-401.00, L=Rh31

$$$$
