
  ACD/LABS03262412082D

 41 43  0  0  0  0  0  0  0  0  1 V2000
    8.7953   -7.8438    0.0000 C    0  0  0  0  0  0  0  0  0  0  0  0
    8.7953   -9.1738    0.0000 C    0  0  0  0  0  0  0  0  0  0  0  0
    7.6434   -7.1788    0.0000 C    0  0  0  0  0  0  0  0  0  0  0  0
    7.6434   -9.8388    0.0000 C    0  0  0  0  0  0  0  0  0  0  0  0
    6.4917   -7.8438    0.0000 C    0  0  0  0  0  0  0  0  0  0  0  0
    6.4917   -9.1738    0.0000 C    0  0  0  0  0  0  0  0  0  0  0  0
    9.3439  -14.4111    0.0000 O    0  0  0  0  0  0  0  0  0  0  0  0
    9.5716  -13.1020    0.0000 N    0  0  0  0  0  0  0  0  0  0  0  0
   10.8239  -12.6450    0.0000 C    0  0  0  0  0  0  0  0  0  0  0  0
   11.8412  -13.5023    0.0000 C    0  0  0  0  0  0  0  0  0  0  0  0
   11.0557  -11.3438    0.0000 C    0  0  0  0  0  0  0  0  0  0  0  0
   10.0309  -10.4913    0.0000 C    0  0  0  0  0  0  0  0  0  0  0  0
   12.3082  -10.8872    0.0000 N    0  0  0  0  0  0  0  0  0  0  0  0
   12.5313   -9.5701    0.0000 O    0  0  0  0  0  0  0  0  0  0  0  0
   18.2333  -14.3904    0.0000 O    0  0  0  0  0  0  0  0  0  0  0  0
   16.9825  -13.9451    0.0000 N    0  0  0  0  0  0  0  0  0  0  0  0
   16.7488  -12.6355    0.0000 C    0  0  0  0  0  0  0  0  0  0  0  0
   17.7585  -11.7762    0.0000 C    0  0  0  0  0  0  0  0  0  0  0  0
   15.4937  -12.1820    0.0000 C    0  0  0  0  0  0  0  0  0  0  0  0
   14.4844  -13.0415    0.0000 C    0  0  0  0  0  0  0  0  0  0  0  0
   15.2601  -10.8727    0.0000 N    0  0  0  0  0  0  0  0  0  0  0  0
   14.0047  -10.4194    0.0000 O    0  0  0  0  0  0  0  0  0  0  0  0
   13.7756   -9.1178    0.0000 Rh   0  0  0  0  0  0  0  0  0  0  0  0
   15.0849   -8.8842    0.0000 C    0  0  0  0  0  0  0  0  0  0  0  0
   15.9367   -9.8979    0.0000 C    0  0  0  0  0  0  0  0  0  0  0  0
   13.5421   -7.8084    0.0000 P    0  0  0  0  0  0  0  0  0  0  0  0
   12.2247   -8.0466    0.0000 O    0  0  0  0  0  0  0  0  0  0  0  0
   13.3007   -6.5032    0.0000 O    0  0  0  0  0  0  0  0  0  0  0  0
   14.8514   -7.5749    0.0000 O    0  0  0  0  0  0  0  0  0  0  0  0
   15.3038   -6.3242    0.0000 C    0  0  0  0  0  0  0  0  0  0  0  0
   14.4469   -5.3070    0.0000 C    0  0  0  0  0  0  0  0  0  0  0  0
   16.6132   -6.0906    0.0000 C    0  0  0  0  0  0  0  0  0  0  0  0
   14.8994   -4.0563    0.0000 C    0  0  0  0  0  0  0  0  0  0  0  0
   17.0656   -4.8400    0.0000 C    0  0  0  0  0  0  0  0  0  0  0  0
   16.2087   -3.8228    0.0000 C    0  0  0  0  0  0  0  0  0  0  0  0
   12.0471   -6.0587    0.0000 C    0  0  0  0  0  0  0  0  0  0  0  0
   11.0354   -6.9221    0.0000 C    0  0  0  0  0  0  0  0  0  0  0  0
   11.8052   -4.7509    0.0000 C    0  0  0  0  0  0  0  0  0  0  0  0
    9.7818   -6.4776    0.0000 C    0  0  0  0  0  0  0  0  0  0  0  0
   10.5517   -4.3064    0.0000 C    0  0  0  0  0  0  0  0  0  0  0  0
    9.5400   -5.1698    0.0000 C    0  0  0  0  0  0  0  0  0  0  0  0
  1  2  1  0  0  0  0
  1  3  2  0  0  0  0
  2  4  2  0  0  0  0
  3  5  1  0  0  0  0
  4  6  1  0  0  0  0
  5  6  2  0  0  0  0
  7  8  1  0  0  0  0
  8  9  2  0  0  0  0
  9 10  1  0  0  0  0
  9 11  1  0  0  0  0
 11 12  1  0  0  0  0
 11 13  2  0  0  0  0
 13 14  1  0  0  0  0
 15 16  1  0  0  0  0
 16 17  2  0  0  0  0
 17 18  1  0  0  0  0
 17 19  1  0  0  0  0
 19 20  1  0  0  0  0
 19 21  2  0  0  0  0
 21 22  1  0  0  0  0
 22 23  1  0  0  0  0
 14 23  1  0  0  0  0
 23 24  1  0  0  0  0
 24 25  2  0  0  0  0
 23 26  1  0  0  0  0
 26 27  1  0  0  0  0
 26 28  1  0  0  0  0
 26 29  1  0  0  0  0
 30 31  1  0  0  0  0
 30 32  2  0  0  0  0
 31 33  2  0  0  0  0
 32 34  1  0  0  0  0
 33 35  1  0  0  0  0
 34 35  2  0  0  0  0
 29 30  1  0  0  0  0
 36 37  1  0  0  0  0
 36 38  2  0  0  0  0
 37 39  2  0  0  0  0
 38 40  1  0  0  0  0
 39 41  1  0  0  0  0
 40 41  2  0  0  0  0
 28 36  1  0  0  0  0
  2 27  1  0  0  0  0
M  END
> <NMREDATA_VERSION>
1.1

> <NMREDATA_LEVEL>
0

> <NMREDATA_SOLVENT>
DCCl3

> <NMREDATA_TEMPERATURE>
298

> <NMREDATA_FORMULA>
C28H33N4O7PRh

> <NMREDATA_SMILES>
C=C[Rh](P(Oc1ccccc1)(Oc1ccccc1)Oc1ccccc1)(O/N=C(/C(=N/O)/C)\C)O/N=C(/C(=N/O)/C)\C

> <NMREDATA_ASSIGNMENT>
Rh23, 2034.00, 23

> <NMREDATA_1D_103Rh>
2034.00, L=Rh23

$$$$
