
  ACD/LABS03282419222D

 68 64  0  0  0  0  0  0  0  0  2 V2000
    9.3864   -7.4214    0.0000 C    0  0  0  0  0  0  0  0  0  0  0  0
    8.0885   -5.1893    0.0000 N    0  0  0  0  0  0  0  0  0  0  0  0
   12.1513  -11.8077    0.0000 C    0  0  0  0  0  0  0  0  0  0  0  0
   13.3741  -13.6163    0.0000 N    0  0  0  0  0  0  0  0  0  0  0  0
   10.6840   -9.6535    0.0000 Rh   0  7  0  0  0  0  0  0  0  0  0  0
   11.9645   -7.4214    0.0000 Se   0  0  0  0  0  0  0  0  0  0  0  0
   13.5183   -9.1878    0.0000 Se   0  0  0  0  0  0  0  0  0  0  0  0
    8.0885   -9.6535    0.0000 Se   0  0  0  0  0  0  0  0  0  0  0  0
    9.3864  -11.9034    0.0000 Se   0  0  0  0  0  0  0  0  0  0  0  0
   15.7136   -9.1718    0.0000 C    0  0  0  0  0  0  0  0  0  0  0  0
   18.3266   -9.1718    0.0000 N    0  0  0  0  0  0  0  0  0  0  0  0
   10.6840   -5.1893    0.0000 C    0  0  0  0  0  0  0  0  0  0  0  0
    9.3864   -2.9394    0.0000 N    0  0  0  0  0  0  0  0  0  0  0  0
    6.7905   -7.4214    0.0000 C    0  0  0  0  0  0  0  0  0  0  0  0
    5.4926   -5.1893    0.0000 N    0  0  0  0  0  0  0  0  0  0  0  0
    6.7905  -11.9034    0.0000 C    0  0  0  0  0  0  0  0  0  0  0  0
    4.1946  -11.9034    0.0000 N    0  0  0  0  0  0  0  0  0  0  0  0
   25.1258   -7.8839    0.0000 N    0  3  0  0  0  0  0  0  0  0  0  0
   26.2956   -7.8839    0.0000 C    0  0  0  0  0  0  0  0  0  0  0  0
   26.8804   -6.8708    0.0000 C    0  0  0  0  0  0  0  0  0  0  0  0
   28.0502   -6.8708    0.0000 C    0  0  0  0  0  0  0  0  0  0  0  0
   28.6351   -5.8578    0.0000 C    0  0  0  0  0  0  0  0  0  0  0  0
   25.1258   -6.7141    0.0000 C    0  0  0  0  0  0  0  0  0  0  0  0
   26.1388   -6.1292    0.0000 C    0  0  0  0  0  0  0  0  0  0  0  0
   26.1388   -4.9595    0.0000 C    0  0  0  0  0  0  0  0  0  0  0  0
   27.1519   -4.3746    0.0000 C    0  0  0  0  0  0  0  0  0  0  0  0
   25.1258   -9.0536    0.0000 C    0  0  0  0  0  0  0  0  0  0  0  0
   24.1127   -9.6385    0.0000 C    0  0  0  0  0  0  0  0  0  0  0  0
   24.1127  -10.8083    0.0000 C    0  0  0  0  0  0  0  0  0  0  0  0
   23.0997  -11.3931    0.0000 C    0  0  0  0  0  0  0  0  0  0  0  0
   23.9560   -7.8839    0.0000 C    0  0  0  0  0  0  0  0  0  0  0  0
   23.3712   -8.8969    0.0000 C    0  0  0  0  0  0  0  0  0  0  0  0
   22.2014   -8.8969    0.0000 C    0  0  0  0  0  0  0  0  0  0  0  0
   21.6165   -9.9099    0.0000 C    0  0  0  0  0  0  0  0  0  0  0  0
   33.5064   -5.3681    0.0000 N    0  3  0  0  0  0  0  0  0  0  0  0
   34.6762   -5.3681    0.0000 C    0  0  0  0  0  0  0  0  0  0  0  0
   35.2610   -4.3550    0.0000 C    0  0  0  0  0  0  0  0  0  0  0  0
   36.4308   -4.3550    0.0000 C    0  0  0  0  0  0  0  0  0  0  0  0
   37.0157   -3.3420    0.0000 C    0  0  0  0  0  0  0  0  0  0  0  0
   33.5064   -4.1983    0.0000 C    0  0  0  0  0  0  0  0  0  0  0  0
   34.5194   -3.6134    0.0000 C    0  0  0  0  0  0  0  0  0  0  0  0
   34.5194   -2.4437    0.0000 C    0  0  0  0  0  0  0  0  0  0  0  0
   35.5325   -1.8588    0.0000 C    0  0  0  0  0  0  0  0  0  0  0  0
   33.5064   -6.5378    0.0000 C    0  0  0  0  0  0  0  0  0  0  0  0
   32.4934   -7.1227    0.0000 C    0  0  0  0  0  0  0  0  0  0  0  0
   32.4934   -8.2925    0.0000 C    0  0  0  0  0  0  0  0  0  0  0  0
   31.4803   -8.8774    0.0000 C    0  0  0  0  0  0  0  0  0  0  0  0
   32.3366   -5.3681    0.0000 C    0  0  0  0  0  0  0  0  0  0  0  0
   31.7518   -6.3811    0.0000 C    0  0  0  0  0  0  0  0  0  0  0  0
   30.5820   -6.3811    0.0000 C    0  0  0  0  0  0  0  0  0  0  0  0
   29.9971   -7.3942    0.0000 C    0  0  0  0  0  0  0  0  0  0  0  0
   27.0006  -12.4347    0.0000 N    0  3  0  0  0  0  0  0  0  0  0  0
   28.1704  -12.4347    0.0000 C    0  0  0  0  0  0  0  0  0  0  0  0
   28.7553  -11.4217    0.0000 C    0  0  0  0  0  0  0  0  0  0  0  0
   29.9250  -11.4217    0.0000 C    0  0  0  0  0  0  0  0  0  0  0  0
   30.5099  -10.4086    0.0000 C    0  0  0  0  0  0  0  0  0  0  0  0
   27.0006  -11.2649    0.0000 C    0  0  0  0  0  0  0  0  0  0  0  0
   28.0137  -10.6801    0.0000 C    0  0  0  0  0  0  0  0  0  0  0  0
   28.0137   -9.5103    0.0000 C    0  0  0  0  0  0  0  0  0  0  0  0
   29.0267   -8.9254    0.0000 C    0  0  0  0  0  0  0  0  0  0  0  0
   27.0006  -13.6045    0.0000 C    0  0  0  0  0  0  0  0  0  0  0  0
   25.9876  -14.1893    0.0000 C    0  0  0  0  0  0  0  0  0  0  0  0
   25.9876  -15.3591    0.0000 C    0  0  0  0  0  0  0  0  0  0  0  0
   24.9745  -15.9440    0.0000 C    0  0  0  0  0  0  0  0  0  0  0  0
   25.8309  -12.4347    0.0000 C    0  0  0  0  0  0  0  0  0  0  0  0
   25.2460  -13.4477    0.0000 C    0  0  0  0  0  0  0  0  0  0  0  0
   24.0762  -13.4477    0.0000 C    0  0  0  0  0  0  0  0  0  0  0  0
   23.4913  -14.4608    0.0000 C    0  0  0  0  0  0  0  0  0  0  0  0
  1  2  3  0  0  0  0
  3  4  3  0  0  0  0
  3  5  1  0  0  0  0
  1  5  1  0  0  0  0
  5  6  1  0  0  0  0
  5  7  1  0  0  0  0
  5  8  1  0  0  0  0
  5  9  1  0  0  0  0
 10 11  3  0  0  0  0
  7 10  1  0  0  0  0
 12 13  3  0  0  0  0
  6 12  1  0  0  0  0
 14 15  3  0  0  0  0
  8 14  1  0  0  0  0
 16 17  3  0  0  0  0
  9 16  1  0  0  0  0
 18 19  1  0  0  0  0
 19 20  1  0  0  0  0
 20 21  1  0  0  0  0
 21 22  1  0  0  0  0
 18 23  1  0  0  0  0
 23 24  1  0  0  0  0
 24 25  1  0  0  0  0
 25 26  1  0  0  0  0
 18 27  1  0  0  0  0
 27 28  1  0  0  0  0
 28 29  1  0  0  0  0
 29 30  1  0  0  0  0
 18 31  1  0  0  0  0
 31 32  1  0  0  0  0
 32 33  1  0  0  0  0
 33 34  1  0  0  0  0
 35 36  1  0  0  0  0
 36 37  1  0  0  0  0
 37 38  1  0  0  0  0
 38 39  1  0  0  0  0
 35 40  1  0  0  0  0
 40 41  1  0  0  0  0
 41 42  1  0  0  0  0
 42 43  1  0  0  0  0
 35 44  1  0  0  0  0
 44 45  1  0  0  0  0
 45 46  1  0  0  0  0
 46 47  1  0  0  0  0
 35 48  1  0  0  0  0
 48 49  1  0  0  0  0
 49 50  1  0  0  0  0
 50 51  1  0  0  0  0
 52 53  1  0  0  0  0
 53 54  1  0  0  0  0
 54 55  1  0  0  0  0
 55 56  1  0  0  0  0
 52 57  1  0  0  0  0
 57 58  1  0  0  0  0
 58 59  1  0  0  0  0
 59 60  1  0  0  0  0
 52 61  1  0  0  0  0
 61 62  1  0  0  0  0
 62 63  1  0  0  0  0
 63 64  1  0  0  0  0
 52 65  1  0  0  0  0
 65 66  1  0  0  0  0
 66 67  1  0  0  0  0
 67 68  1  0  0  0  0
M  END
> <NMREDATA_VERSION>
1.1

> <NMREDATA_LEVEL>
0

> <NMREDATA_SOLVENT>
CD2Cl2

> <NMREDATA_TEMPERATURE>
243

> <NMREDATA_FORMULA>
C54H111N9RhSe4

> <NMREDATA_SMILES>
N#C[Rh]([Se]C#N)([Se]C#N)([Se]C#N)([Se]C#N)C#N.CCCCN(CCCC)(CCCC)CCCC.CCCCN(CCCC)(CCCC)CCCC.CCCCN(CCCC)(CCCC)CCCC

> <NMREDATA_ASSIGNMENT>
Rh5, 1680.00, 5

> <NMREDATA_1D_103Rh>
1680.00, L=Rh5

$$$$
