
  ACD/LABS03092411212D

 55 62  0  0  0  0  0  0  0  0  2 V2000
   11.6824  -17.9999    0.0000 P    0  0  0  0  0  0  0  0  0  0  0  0
   12.5339  -19.0201    0.0000 C    0  0  0  0  0  0  0  0  0  0  0  0
   13.8465  -18.7980    0.0000 C    0  0  0  0  0  0  0  0  0  0  0  0
   12.0816  -20.2704    0.0000 C    0  0  0  0  0  0  0  0  0  0  0  0
   14.6980  -19.8181    0.0000 C    0  0  0  0  0  0  0  0  0  0  0  0
   12.9327  -21.2901    0.0000 C    0  0  0  0  0  0  0  0  0  0  0  0
   14.2453  -21.0685    0.0000 C    0  0  0  0  0  0  0  0  0  0  0  0
   10.3698  -18.2304    0.0000 Rh   0  3  0  0  0  0  0  0  0  0  0  0
   10.1481  -16.9178    0.0000 H    0  0  0  0  0  0  0  0  0  0  0  0
   10.6003  -19.5431    0.0000 C    0  0  0  0  0  0  0  0  0  0  0  0
   10.8309  -20.8557    0.0000 O    0  0  0  0  0  0  0  0  0  0  0  0
    9.0660  -18.4610    0.0000 C    0  0  0  0  0  0  0  0  0  0  0  0
    7.7534  -18.6916    0.0000 O    0  0  0  0  0  0  0  0  0  0  0  0
   14.2453  -14.3638    0.0000 C    0  0  0  0  0  0  0  0  0  0  0  0
   13.2256  -15.2153    0.0000 C    0  0  0  0  0  0  0  0  0  0  0  0
   15.4867  -14.8160    0.0000 O    0  0  0  0  0  0  0  0  0  0  0  0
   13.4472  -16.5279    0.0000 C    0  0  0  0  0  0  0  0  0  0  0  0
   15.7084  -16.1286    0.0000 C    0  0  0  0  0  0  0  0  0  0  0  0
   14.6980  -16.9801    0.0000 C    0  0  0  0  0  0  0  0  0  0  0  0
   14.0147  -13.0605    0.0000 C    0  0  0  0  0  0  0  0  0  0  0  0
   12.7644  -12.5994    0.0000 C    0  0  0  0  0  0  0  0  0  0  0  0
   11.9753  -14.7541    0.0000 C    0  0  0  0  0  0  0  0  0  0  0  0
   11.7447  -13.4593    0.0000 C    0  0  0  0  0  0  0  0  0  0  0  0
   16.9591  -16.5898    0.0000 C    0  0  0  0  0  0  0  0  0  0  0  0
   17.1897  -17.8935    0.0000 C    0  0  0  0  0  0  0  0  0  0  0  0
   14.9192  -18.2928    0.0000 C    0  0  0  0  0  0  0  0  0  0  0  0
   16.1695  -18.7539    0.0000 C    0  0  0  0  0  0  0  0  0  0  0  0
   17.9789  -15.7294    0.0000 P    0  0  0  0  0  0  0  0  0  0  0  0
   15.0167  -10.3378    0.0000 P    0  0  0  0  0  0  0  0  0  0  0  0
   19.2915  -15.9688    0.0000 C    0  0  0  0  0  0  0  0  0  0  0  0
   20.1519  -14.9491    0.0000 C    0  0  0  0  0  0  0  0  0  0  0  0
   19.7437  -17.2196    0.0000 C    0  0  0  0  0  0  0  0  0  0  0  0
   21.4556  -15.1886    0.0000 C    0  0  0  0  0  0  0  0  0  0  0  0
   21.0475  -17.4591    0.0000 C    0  0  0  0  0  0  0  0  0  0  0  0
   21.9079  -16.4389    0.0000 C    0  0  0  0  0  0  0  0  0  0  0  0
   17.5267  -14.4791    0.0000 C    0  0  0  0  0  0  0  0  0  0  0  0
   16.2229  -14.2485    0.0000 C    0  0  0  0  0  0  0  0  0  0  0  0
   18.3871  -13.4771    0.0000 C    0  0  0  0  0  0  0  0  0  0  0  0
   15.7707  -12.9982    0.0000 C    0  0  0  0  0  0  0  0  0  0  0  0
   17.9344  -12.2179    0.0000 C    0  0  0  0  0  0  0  0  0  0  0  0
   16.6307  -11.9873    0.0000 C    0  0  0  0  0  0  0  0  0  0  0  0
   16.3293  -10.1161    0.0000 C    0  0  0  0  0  0  0  0  0  0  0  0
   17.1719  -11.1448    0.0000 C    0  0  0  0  0  0  0  0  0  0  0  0
   16.7904   -8.8743    0.0000 C    0  0  0  0  0  0  0  0  0  0  0  0
   18.4845  -10.9231    0.0000 C    0  0  0  0  0  0  0  0  0  0  0  0
   18.1031   -8.6526    0.0000 C    0  0  0  0  0  0  0  0  0  0  0  0
   18.9546   -9.6723    0.0000 C    0  0  0  0  0  0  0  0  0  0  0  0
   14.1745   -9.3176    0.0000 C    0  0  0  0  0  0  0  0  0  0  0  0
   14.6446   -8.0673    0.0000 C    0  0  0  0  0  0  0  0  0  0  0  0
   12.8619   -9.5397    0.0000 C    0  0  0  0  0  0  0  0  0  0  0  0
   13.7931   -7.0475    0.0000 C    0  0  0  0  0  0  0  0  0  0  0  0
   12.0193   -8.5106    0.0000 C    0  0  0  0  0  0  0  0  0  0  0  0
   12.4805   -7.2692    0.0000 C    0  0  0  0  0  0  0  0  0  0  0  0
   12.1435  -16.7496    0.0000 C    0  0  0  0  0  0  0  0  0  0  0  0
   12.9950  -17.7782    0.0000 C    0  0  0  0  0  0  0  0  0  0  0  0
  2  3  1  0  0  0  0
  2  4  2  0  0  0  0
  3  5  2  0  0  0  0
  4  6  1  0  0  0  0
  5  7  1  0  0  0  0
  6  7  2  0  0  0  0
  1  2  1  0  0  0  0
  8  9  1  0  0  0  0
  8 10  1  0  0  0  0
 10 11  3  0  0  0  0
  8 12  1  0  0  0  0
 12 13  3  0  0  0  0
  1  8  1  0  0  0  0
 14 16  1  0  0  0  0
 15 17  1  0  0  0  0
 16 18  1  0  0  0  0
 17 19  1  0  0  0  0
 14 20  1  0  0  0  0
 14 15  2  0  0  0  0
 20 21  2  0  0  0  0
 15 22  1  0  0  0  0
 21 23  1  0  0  0  0
 22 23  2  0  0  0  0
 18 24  1  0  0  0  0
 18 19  2  0  0  0  0
 24 25  2  0  0  0  0
 19 26  1  0  0  0  0
 25 27  1  0  0  0  0
 26 27  2  0  0  0  0
 24 28  1  0  0  0  0
 20 29  1  0  0  0  0
 30 31  1  0  0  0  0
 30 32  2  0  0  0  0
 31 33  2  0  0  0  0
 32 34  1  0  0  0  0
 33 35  1  0  0  0  0
 34 35  2  0  0  0  0
 28 30  1  0  0  0  0
 36 37  1  0  0  0  0
 36 38  2  0  0  0  0
 37 39  2  0  0  0  0
 38 40  1  0  0  0  0
 39 41  1  0  0  0  0
 40 41  2  0  0  0  0
 28 36  1  0  0  0  0
 42 43  1  0  0  0  0
 42 44  2  0  0  0  0
 43 45  2  0  0  0  0
 44 46  1  0  0  0  0
 45 47  1  0  0  0  0
 46 47  2  0  0  0  0
 29 42  1  0  0  0  0
 48 49  1  0  0  0  0
 48 50  2  0  0  0  0
 49 51  2  0  0  0  0
 50 52  1  0  0  0  0
 51 53  1  0  0  0  0
 52 53  2  0  0  0  0
 29 48  1  0  0  0  0
 17 54  1  0  0  0  0
 17 55  1  0  0  0  0
  1 54  1  0  0  0  0
M  END
> <NMREDATA_VERSION>
1.1

> <NMREDATA_LEVEL>
0

> <NMREDATA_SOLVENT>
C6D6

> <NMREDATA_TEMPERATURE>
298

> <NMREDATA_FORMULA>
C47H37O3P3Rh

> <NMREDATA_SMILES>
[O]#C[RhH](P(c1ccccc1)CC1(C)c2cccc(c2Oc2c1cccc2P(c1ccccc1)c1ccccc1)P(c1ccccc1)c1ccccc1)C#[O]

> <NMREDATA_ASSIGNMENT>
Rh8, -828.00, 8

> <NMREDATA_1D_103Rh>
-828.00, L=Rh8

$$$$
