
  ACD/LABS02072409422D

 61 69  0  0  0  0  0  0  0  0  2 V2000
   16.7131  -14.5018    0.0000 Cl   0  5  0  0  0  0  0  0  0  0  0  0
   31.5175   -9.7346    0.0000 C    0  0  0  0  0  0  0  0  0  0  0  0
   31.5175  -11.0646    0.0000 C    0  0  0  0  0  0  0  0  0  0  0  0
   30.3656   -9.0696    0.0000 C    0  0  0  0  0  0  0  0  0  0  0  0
   30.3656  -11.7296    0.0000 C    0  0  0  0  0  0  0  0  0  0  0  0
   29.2138   -9.7346    0.0000 C    0  0  0  0  0  0  0  0  0  0  0  0
   29.2138  -11.0646    0.0000 C    0  0  0  0  0  0  0  0  0  0  0  0
   31.5976   -6.1933    0.0000 C    0  0  0  0  0  0  0  0  0  0  0  0
   31.5976   -7.5233    0.0000 C    0  0  0  0  0  0  0  0  0  0  0  0
   30.4457   -5.5283    0.0000 C    0  0  0  0  0  0  0  0  0  0  0  0
   30.4457   -8.1883    0.0000 C    0  0  0  0  0  0  0  0  0  0  0  0
   29.2939   -6.1933    0.0000 C    0  0  0  0  0  0  0  0  0  0  0  0
   29.2939   -7.5233    0.0000 C    0  0  0  0  0  0  0  0  0  0  0  0
   26.1494   -3.2289    0.0000 C    0  0  0  0  0  0  0  0  0  0  0  0
   26.1494   -4.5589    0.0000 C    0  0  0  0  0  0  0  0  0  0  0  0
   24.9975   -2.5639    0.0000 C    0  0  0  0  0  0  0  0  0  0  0  0
   24.9975   -5.2239    0.0000 C    0  0  0  0  0  0  0  0  0  0  0  0
   23.8458   -3.2289    0.0000 C    0  0  0  0  0  0  0  0  0  0  0  0
   23.8458   -4.5589    0.0000 C    0  0  0  0  0  0  0  0  0  0  0  0
   18.5540  -10.6801    0.0000 C    0  0  0  0  0  0  0  0  0  0  0  0
   18.5540  -12.0101    0.0000 C    0  0  0  0  0  0  0  0  0  0  0  0
   17.4021  -10.0151    0.0000 C    0  0  0  0  0  0  0  0  0  0  0  0
   17.4021  -12.6751    0.0000 C    0  0  0  0  0  0  0  0  0  0  0  0
   16.2503  -10.6801    0.0000 C    0  0  0  0  0  0  0  0  0  0  0  0
   16.2503  -12.0101    0.0000 C    0  0  0  0  0  0  0  0  0  0  0  0
   21.6177   -8.5655    0.0000 P    0  0  0  0  0  0  0  0  0  0  0  0
   20.5340   -5.2006    0.0000 C    0  0  0  0  0  0  0  0  0  0  0  0
   21.1990   -6.3524    0.0000 C    0  0  0  0  0  0  0  0  0  0  0  0
   19.2188   -5.0024    0.0000 C    0  0  0  0  0  0  0  0  0  0  0  0
   20.7131   -7.5905    0.0000 C    0  0  0  0  0  0  0  0  0  0  0  0
   18.2439   -5.9070    0.0000 C    0  0  0  0  0  0  0  0  0  0  0  0
   18.3433   -7.2333    0.0000 C    0  0  0  0  0  0  0  0  0  0  0  0
   19.4422   -7.9825    0.0000 C    0  0  0  0  0  0  0  0  0  0  0  0
   17.1450   -7.8104    0.0000 C    0  0  0  0  0  0  0  0  0  0  0  0
   17.0456   -9.1367    0.0000 C    0  0  0  0  0  0  0  0  0  0  0  0
   19.3428   -9.3088    0.0000 C    0  0  0  0  0  0  0  0  0  0  0  0
   18.1445   -9.8859    0.0000 C    0  0  0  0  0  0  0  0  0  0  0  0
   23.0751  -12.7004    0.0000 C    0  0  0  0  0  0  0  0  0  0  0  0
   23.0751  -11.3704    0.0000 C    0  0  0  0  0  0  0  0  0  0  0  0
   24.1149  -13.5296    0.0000 C    0  0  0  0  0  0  0  0  0  0  0  0
   24.1149  -10.5411    0.0000 C    0  0  0  0  0  0  0  0  0  0  0  0
   25.4116  -13.2337    0.0000 C    0  0  0  0  0  0  0  0  0  0  0  0
   25.9887  -12.0354    0.0000 C    0  0  0  0  0  0  0  0  0  0  0  0
   25.4116  -10.8371    0.0000 C    0  0  0  0  0  0  0  0  0  0  0  0
   27.3149  -12.1348    0.0000 C    0  0  0  0  0  0  0  0  0  0  0  0
   28.0642  -11.0359    0.0000 C    0  0  0  0  0  0  0  0  0  0  0  0
   26.1608   -9.7382    0.0000 C    0  0  0  0  0  0  0  0  0  0  0  0
   27.4871   -9.8376    0.0000 C    0  0  0  0  0  0  0  0  0  0  0  0
   21.9233  -13.3654    0.0000 C    0  0  0  0  0  0  0  0  0  0  0  0
   20.7715  -12.7004    0.0000 C    0  0  0  0  0  0  0  0  0  0  0  0
   21.9233  -10.7054    0.0000 C    0  0  0  0  0  0  0  0  0  0  0  0
   20.7715  -11.3704    0.0000 C    0  0  0  0  0  0  0  0  0  0  0  0
   22.5223   -9.5404    0.0000 Rh   0  0  0  0  0  0  0  0  0  0  0  0
   23.8190   -9.2445    0.0000 P    0  0  0  0  0  0  0  0  0  0  0  0
   21.1990   -4.0489    0.0000 C    0  0  0  0  0  0  0  0  0  0  0  0
   22.5290   -4.0490    0.0000 C    0  0  0  0  0  0  0  0  0  0  0  0
   22.5289   -6.3525    0.0000 C    0  0  0  0  0  0  0  0  0  0  0  0
   23.1939   -5.2008    0.0000 C    0  0  0  0  0  0  0  0  0  0  0  0
   27.5294   -4.6790    0.0000 N    0  3  0  0  0  0  0  0  0  0  0  0
   29.6446   -4.3586    0.0000 C    0  0  0  0  0  0  0  0  0  0  0  0
   31.7758   -4.5348    0.0000 C    0  0  0  0  0  0  0  0  0  0  0  0
  2  3  1  0  0  0  0
  2  4  2  0  0  0  0
  3  5  2  0  0  0  0
  4  6  1  0  0  0  0
  5  7  1  0  0  0  0
  6  7  2  0  0  0  0
  8  9  1  0  0  0  0
  8 10  2  0  0  0  0
  9 11  2  0  0  0  0
 10 12  1  0  0  0  0
 11 13  1  0  0  0  0
 12 13  2  0  0  0  0
 14 15  1  0  0  0  0
 14 16  2  0  0  0  0
 15 17  2  0  0  0  0
 16 18  1  0  0  0  0
 17 19  1  0  0  0  0
 18 19  2  0  0  0  0
 20 21  1  0  0  0  0
 20 22  2  0  0  0  0
 21 23  2  0  0  0  0
 22 24  1  0  0  0  0
 23 25  1  0  0  0  0
 24 25  2  0  0  0  0
 27 29  1  0  0  0  0
 28 30  1  0  0  0  0
 29 31  2  0  0  0  0
 30 33  1  0  0  0  0
 31 32  1  0  0  0  0
 32 34  1  0  0  0  0
 32 33  2  0  0  0  0
 34 35  2  0  0  0  0
 33 36  1  0  0  0  0
 35 37  1  0  0  0  0
 37 36  2  0  0  0  0
 26 30  1  0  0  0  0
 38 40  1  0  0  0  0
 39 41  1  0  0  0  0
 40 42  2  0  0  0  0
 41 44  1  0  0  0  0
 42 43  1  0  0  0  0
 43 45  1  0  0  0  0
 43 44  2  0  0  0  0
 45 46  2  0  0  0  0
 44 47  1  0  0  0  0
 46 48  1  0  0  0  0
 47 48  2  0  0  0  0
 38 49  1  0  0  0  0
 38 39  2  0  0  0  0
 49 50  2  0  0  0  0
 39 51  1  0  0  0  0
 50 52  1  0  0  0  0
 51 52  2  0  0  0  0
 53 54  1  0  0  0  0
 41 54  1  0  0  0  0
 26 53  1  0  0  0  0
 27 55  1  0  0  0  0
 27 28  2  0  0  0  0
 55 56  2  0  0  0  0
 28 57  1  0  0  0  0
 56 58  1  0  0  0  0
 57 58  2  0  0  0  0
 20 26  1  0  0  0  0
 19 26  1  0  0  0  0
 12 54  1  0  0  0  0
  6 54  1  0  0  0  0
 53 59  1  0  0  0  0
 59 60  3  0  0  0  0
 60 61  1  0  0  0  0
M  END
> <NMREDATA_VERSION>
1.1

> <NMREDATA_LEVEL>
0

> <NMREDATA_SOLVENT>
CD2Cl2

> <NMREDATA_TEMPERATURE>
213

> <NMREDATA_FORMULA>
C56H49ClNP2Rh

> <NMREDATA_SMILES>
CC#N[Rh](P(C1c2ccccc2C=Cc2c1cccc2)(c1ccccc1)c1ccccc1)P(C1c2ccccc2C=Cc2c1cccc2)(c1ccccc1)c1ccccc1.Cl

> <NMREDATA_ASSIGNMENT>
Rh53, 381.00, 53

> <NMREDATA_1D_103Rh>
381.00, L=Rh53

$$$$
