
  ACD/LABS03282419082D

 16 12  0  0  0  0  0  0  0  0  2 V2000
   14.9345   -9.1337    0.0000 Rh   0  7  0  0  0  0  0  0  0  0  0  0
   16.2645   -9.1337    0.0000 C    0  0  0  0  0  0  0  0  0  0  0  0
   17.5945   -9.1337    0.0000 N    0  0  0  0  0  0  0  0  0  0  0  0
   14.2695   -7.9819    0.0000 C    0  0  0  0  0  0  0  0  0  0  0  0
   13.6045   -6.8301    0.0000 N    0  0  0  0  0  0  0  0  0  0  0  0
   14.2695  -10.2855    0.0000 C    0  0  0  0  0  0  0  0  0  0  0  0
   13.6045  -11.4374    0.0000 N    0  0  0  0  0  0  0  0  0  0  0  0
   13.6045   -9.1337    0.0000 C    0  0  0  0  0  0  0  0  0  0  0  0
   12.2745   -9.1337    0.0000 N    0  0  0  0  0  0  0  0  0  0  0  0
   15.5995   -7.9819    0.0000 C    0  0  0  0  0  0  0  0  0  0  0  0
   16.2645   -6.8301    0.0000 N    0  0  0  0  0  0  0  0  0  0  0  0
   15.5995  -10.2856    0.0000 C    0  0  0  0  0  0  0  0  0  0  0  0
   16.2645  -11.4374    0.0000 N    0  0  0  0  0  0  0  0  0  0  0  0
   18.6360   -5.6405    0.0000 K    0  3  0  0  0  0  0  0  0  0  0  0
   19.6295   -5.6405    0.0000 K    0  3  0  0  0  0  0  0  0  0  0  0
   20.6390   -5.5764    0.0000 K    0  3  0  0  0  0  0  0  0  0  0  0
  2  3  3  0  0  0  0
  1  2  1  0  0  0  0
  4  5  3  0  0  0  0
  1  4  1  0  0  0  0
  6  7  3  0  0  0  0
  1  6  1  0  0  0  0
  8  9  3  0  0  0  0
  1  8  1  0  0  0  0
 10 11  3  0  0  0  0
  1 10  1  0  0  0  0
 12 13  3  0  0  0  0
  1 12  1  0  0  0  0
M  END
> <NMREDATA_VERSION>
1.1

> <NMREDATA_LEVEL>
0

> <NMREDATA_SOLVENT>
HClO4 (aq)

> <NMREDATA_TEMPERATURE>
298

> <NMREDATA_FORMULA>
C6H3K3N6Rh

> <NMREDATA_SMILES>
N#C[Rh](C#N)(C#N)(C#N)(C#N)C#N.[KH].[KH].[KH]

> <NMREDATA_ASSIGNMENT>
Rh1, 340.00, 1

> <NMREDATA_1D_103Rh>
340.00, L=Rh1

$$$$
