
  ACD/LABS04032413562D

 28 28  0  0  0  0  0  0  0  0  2 V2000
   21.1980  -14.0131    0.0000 C    0  0  0  0  0  0  0  0  0  0  0  0
   21.1980  -15.3431    0.0000 C    0  0  0  0  0  0  0  0  0  0  0  0
   20.0461  -13.3481    0.0000 C    0  0  0  0  0  0  0  0  0  0  0  0
   20.0461  -16.0081    0.0000 C    0  0  0  0  0  0  0  0  0  0  0  0
   18.8943  -14.0131    0.0000 C    0  0  0  0  0  0  0  0  0  0  0  0
   18.8943  -15.3431    0.0000 C    0  0  0  0  0  0  0  0  0  0  0  0
   17.5304  -14.3095    0.0000 As   0  0  0  0  0  0  0  0  0  0  0  0
   20.0462  -12.3866    0.0000 As   0  0  0  0  0  0  0  0  0  0  0  0
   17.3862  -15.2389    0.0000 C    0  0  0  0  0  0  0  0  0  0  0  0
   17.5464  -13.3000    0.0000 C    0  0  0  0  0  0  0  0  0  0  0  0
   19.4052  -11.6976    0.0000 C    0  0  0  0  0  0  0  0  0  0  0  0
   21.3281  -11.4412    0.0000 C    0  0  0  0  0  0  0  0  0  0  0  0
   10.3497  -14.7021    0.0000 C    0  0  0  0  0  0  0  0  0  0  0  0
   10.3497  -16.0321    0.0000 C    0  0  0  0  0  0  0  0  0  0  0  0
    9.1978  -14.0371    0.0000 C    0  0  0  0  0  0  0  0  0  0  0  0
    9.1978  -16.6971    0.0000 C    0  0  0  0  0  0  0  0  0  0  0  0
    8.0460  -14.7021    0.0000 C    0  0  0  0  0  0  0  0  0  0  0  0
    8.0460  -16.0321    0.0000 C    0  0  0  0  0  0  0  0  0  0  0  0
   11.3931  -14.4377    0.0000 As   0  0  0  0  0  0  0  0  0  0  0  0
    8.5729  -13.0276    0.0000 As   0  0  0  0  0  0  0  0  0  0  0  0
    8.4127  -12.0021    0.0000 C    0  0  0  0  0  0  0  0  0  0  0  0
    6.9384  -12.9475    0.0000 C    0  0  0  0  0  0  0  0  0  0  0  0
   12.0341  -15.6395    0.0000 C    0  0  0  0  0  0  0  0  0  0  0  0
   12.8994  -14.8704    0.0000 C    0  0  0  0  0  0  0  0  0  0  0  0
   11.9059  -12.5629    0.0000 Rh   0  3  0  0  0  0  0  0  0  0  0  0
   11.0406  -11.5053    0.0000 I    0  0  0  0  0  0  0  0  0  0  0  0
   13.4282  -11.5213    0.0000 I    0  0  0  0  0  0  0  0  0  0  0  0
   27.3051  -11.3451    0.0000 I    0  5  0  0  0  0  0  0  0  0  0  0
  1  2  1  0  0  0  0
  1  3  2  0  0  0  0
  2  4  2  0  0  0  0
  3  5  1  0  0  0  0
  4  6  1  0  0  0  0
  5  6  2  0  0  0  0
  5  7  1  0  0  0  0
  3  8  1  0  0  0  0
  7  9  1  0  0  0  0
  7 10  1  0  0  0  0
  8 11  1  0  0  0  0
  8 12  1  0  0  0  0
 13 14  1  0  0  0  0
 13 15  2  0  0  0  0
 14 16  2  0  0  0  0
 15 17  1  0  0  0  0
 16 18  1  0  0  0  0
 17 18  2  0  0  0  0
 13 19  1  0  0  0  0
 15 20  1  0  0  0  0
 20 21  1  0  0  0  0
 20 22  1  0  0  0  0
 19 23  1  0  0  0  0
 19 24  1  0  0  0  0
 25 26  1  0  0  0  0
 25 27  1  0  0  0  0
 19 25  1  0  0  0  0
  7 25  1  0  0  0  0
M  END
> <NMREDATA_VERSION>
1.1

> <NMREDATA_LEVEL>
0

> <NMREDATA_SOLVENT>
DMF-d7

> <NMREDATA_TEMPERATURE>
300

> <NMREDATA_FORMULA>
C20H35As4I3Rh

> <NMREDATA_SMILES>
C[As](c1ccccc1[AsH]([Rh]([AsH](c1ccccc1[As](C)C)(C)C)(I)I)(C)C)C.I

> <NMREDATA_ASSIGNMENT>
Rh25, -300.00, 25

> <NMREDATA_1D_103Rh>
-300.00, L=Rh25

$$$$
