
  ACD/LABS04042410012D

 28 27  0  0  0  0  0  0  0  0  1 V2000
   14.0997  -10.5470    0.0000 S    0  0  0  0  0  0  0  0  0  0  0  0
   13.2664  -11.9902    0.0000 S    0  0  0  0  0  0  0  0  0  0  0  0
   11.5999  -11.9902    0.0000 P    0  0  0  0  0  0  0  0  0  0  0  0
   10.7666  -13.4335    0.0000 O    0  0  0  0  0  0  0  0  0  0  0  0
   10.7666  -10.5470    0.0000 O    0  0  0  0  0  0  0  0  0  0  0  0
    9.1001  -13.4335    0.0000 C    0  0  0  0  0  0  0  0  0  0  0  0
    8.2669  -14.8767    0.0000 C    0  0  0  0  0  0  0  0  0  0  0  0
   11.5999   -9.1037    0.0000 C    0  0  0  0  0  0  0  0  0  0  0  0
   10.7666   -7.6605    0.0000 C    0  0  0  0  0  0  0  0  0  0  0  0
   16.5994   -9.1037    0.0000 S    0  0  0  0  0  0  0  0  0  0  0  0
   18.2659   -9.1037    0.0000 S    0  0  0  0  0  0  0  0  0  0  0  0
   19.0992   -7.6605    0.0000 P    0  0  0  0  0  0  0  0  0  0  0  0
   18.2659   -6.2173    0.0000 O    0  0  0  0  0  0  0  0  0  0  0  0
   20.7657   -7.6605    0.0000 O    0  0  0  0  0  0  0  0  0  0  0  0
   16.5994   -6.2173    0.0000 C    0  0  0  0  0  0  0  0  0  0  0  0
   15.7662   -4.7740    0.0000 C    0  0  0  0  0  0  0  0  0  0  0  0
   21.5989   -9.1037    0.0000 C    0  0  0  0  0  0  0  0  0  0  0  0
   23.2654   -9.1037    0.0000 C    0  0  0  0  0  0  0  0  0  0  0  0
   15.7662  -10.5470    0.0000 Rh   0  0  0  0  0  0  0  0  0  0  0  0
   16.5994  -11.9902    0.0000 S    0  0  0  0  0  0  0  0  0  0  0  0
   18.2659  -11.9902    0.0000 S    0  0  0  0  0  0  0  0  0  0  0  0
   19.0992  -13.4335    0.0000 P    0  0  0  0  0  0  0  0  0  0  0  0
   20.7657  -13.4335    0.0000 O    0  0  0  0  0  0  0  0  0  0  0  0
   18.2659  -14.8767    0.0000 O    0  0  0  0  0  0  0  0  0  0  0  0
   21.5989  -11.9902    0.0000 C    0  0  0  0  0  0  0  0  0  0  0  0
   23.2654  -11.9902    0.0000 C    0  0  0  0  0  0  0  0  0  0  0  0
   16.5994  -14.8767    0.0000 C    0  0  0  0  0  0  0  0  0  0  0  0
   15.7662  -16.3199    0.0000 C    0  0  0  0  0  0  0  0  0  0  0  0
  1  2  1  0  0  0  0
  2  3  1  0  0  0  0
  3  4  1  0  0  0  0
  3  5  1  0  0  0  0
  4  6  1  0  0  0  0
  6  7  1  0  0  0  0
  5  8  1  0  0  0  0
  8  9  1  0  0  0  0
 10 11  1  0  0  0  0
 11 12  1  0  0  0  0
 12 13  1  0  0  0  0
 12 14  1  0  0  0  0
 13 15  1  0  0  0  0
 15 16  1  0  0  0  0
 14 17  1  0  0  0  0
 17 18  1  0  0  0  0
 19 20  1  0  0  0  0
 20 21  1  0  0  0  0
 21 22  1  0  0  0  0
 22 23  1  0  0  0  0
 22 24  1  0  0  0  0
 23 25  1  0  0  0  0
 25 26  1  0  0  0  0
 24 27  1  0  0  0  0
 27 28  1  0  0  0  0
 10 19  1  0  0  0  0
  1 19  1  0  0  0  0
M  END
> <NMREDATA_VERSION>
1.1

> <NMREDATA_LEVEL>
0

> <NMREDATA_SOLVENT>
DCCl3

> <NMREDATA_TEMPERATURE>
298

> <NMREDATA_FORMULA>
C12H30O6P3RhS6

> <NMREDATA_SMILES>
CCOP(SS[Rh](SSP(OCC)OCC)SSP(OCC)OCC)OCC

> <NMREDATA_ASSIGNMENT>
Rh19, 3665.00, 19

> <NMREDATA_1D_103Rh>
3665.00, L=Rh19

$$$$
