
  ACD/LABS04032413522D

 13 12  0  0  0  0  0  0  0  0  1 V2000
   12.7071  -13.4763    0.0000 Rh   0  0  0  0  0  0  0  0  0  0  0  0
   11.4252  -12.1623    0.0000 I    0  0  0  0  0  0  0  0  0  0  0  0
   11.0246  -12.8353    0.0000 I    0  0  0  0  0  0  0  0  0  0  0  0
   14.1493  -14.9665    0.0000 I    0  0  0  0  0  0  0  0  0  0  0  0
   11.3130  -14.4858    0.0000 S    0  0  0  0  0  0  0  0  0  0  0  0
   14.1653  -12.6110    0.0000 S    0  0  0  0  0  0  0  0  0  0  0  0
   11.9860  -15.7196    0.0000 C    0  0  0  0  0  0  0  0  0  0  0  0
    9.6946  -14.5819    0.0000 C    0  0  0  0  0  0  0  0  0  0  0  0
   14.9505  -12.7071    0.0000 C    0  0  0  0  0  0  0  0  0  0  0  0
   14.4057  -11.5374    0.0000 C    0  0  0  0  0  0  0  0  0  0  0  0
   14.9184  -14.1653    0.0000 S    0  0  0  0  0  0  0  0  0  0  0  0
   15.9280  -14.1813    0.0000 C    0  0  0  0  0  0  0  0  0  0  0  0
   15.3671  -14.9665    0.0000 C    0  0  0  0  0  0  0  0  0  0  0  0
  1  2  1  0  0  0  0
  1  3  1  0  0  0  0
  1  4  1  0  0  0  0
  1  5  1  0  0  0  0
  1  6  1  0  0  0  0
  5  7  1  0  0  0  0
  5  8  1  0  0  0  0
  6  9  1  0  0  0  0
  6 10  1  0  0  0  0
  1 11  1  0  0  0  0
 11 12  1  0  0  0  0
 11 13  1  0  0  0  0
M  END
> <NMREDATA_VERSION>
1.1

> <NMREDATA_LEVEL>
0

> <NMREDATA_SOLVENT>
CD2Cl2

> <NMREDATA_FORMULA>
C6H21I3RhS3

> <NMREDATA_SMILES>
CS([Rh](S(C)C)(S(C)C)(I)(I)I)C

> <NMREDATA_ASSIGNMENT>
Rh1, 2448.00, 1

> <NMREDATA_1D_103Rh>
2448.00, L=Rh1

$$$$
