LaurenceCarlton-2008_00002.mol
  ChemDraw08202414272D

 59 60  0  0  0  0  0  0  0  0999 V2000
   -4.6203    0.1879    0.0000 C    0  0  0  0  0  0  0  0  0  0  0  0
    1.7778    4.6978    0.0000 C    0  0  0  0  0  0  0  0  0  0  0  0
    2.4865    5.1116    0.0000 C    0  0  0  0  0  0  0  0  0  0  0  0
    1.7767    3.8757    0.0000 C    0  0  0  0  0  0  0  0  0  0  0  0
    3.1994    4.7011    0.0000 C    0  0  0  0  0  0  0  0  0  0  0  0
    2.4843    3.4677    0.0000 C    0  0  0  0  0  0  0  0  0  0  0  0
    3.1980    3.8791    0.0000 C    0  0  0  0  0  0  0  0  0  0  0  0
   -3.1993   -1.9476    0.0000 C    0  0  0  0  0  0  0  0  0  0  0  0
   -3.1963   -1.1275    0.0000 C    0  0  0  0  0  0  0  0  0  0  0  0
   -3.9112   -2.3608    0.0000 C    0  0  0  0  0  0  0  0  0  0  0  0
   -3.9102   -0.7188    0.0000 C    0  0  0  0  0  0  0  0  0  0  0  0
   -4.6179   -1.9492    0.0000 C    0  0  0  0  0  0  0  0  0  0  0  0
   -4.6199   -1.1270    0.0000 C    0  0  0  0  0  0  0  0  0  0  0  0
   -0.2601    0.5678    0.0000 Rh   0  0  0  0  0  0  0  0  0  0  0  0
   -0.2601   -0.5010    0.0000 C    0  0  0  0  0  0  0  0  0  0  0  0
    0.4850   -0.8485    0.0000 O    0  0  0  0  0  0  0  0  0  0  0  0
   -0.8899   -1.0295    0.0000 C    0  0  0  0  0  0  0  0  0  0  0  0
   -0.7471   -1.8391    0.0000 C    0  0  0  0  0  0  0  0  0  0  0  0
    0.0254   -2.1203    0.0000 C    0  0  0  0  0  0  0  0  0  0  0  0
    0.1682   -2.9300    0.0000 C    0  0  0  0  0  0  0  0  0  0  0  0
    0.9408   -3.2111    0.0000 C    0  0  0  0  0  0  0  0  0  0  0  0
    1.0835   -4.0208    0.0000 C    0  0  0  0  0  0  0  0  0  0  0  0
    1.8561   -4.3020    0.0000 C    0  0  0  0  0  0  0  0  0  0  0  0
    1.9988   -5.1116    0.0000 C    0  0  0  0  0  0  0  0  0  0  0  0
   -0.8903    1.3690    0.0000 C    0  0  0  0  0  0  0  0  0  0  0  0
    0.8213   -0.0561    0.0000 C    0  0  0  0  0  0  0  0  0  0  0  0
   -1.4737    1.9524    0.0000 O    0  0  0  0  0  0  0  0  0  0  0  0
    1.5358   -0.4686    0.0000 O    0  0  0  0  0  0  0  0  0  0  0  0
    2.4843    2.1522    0.0000 P    0  0  0  0  0  0  0  0  0  0  0  0
   -2.0571   -0.4698    0.0000 P    0  0  0  0  0  0  0  0  0  0  0  0
   -2.0571   -1.5386    0.0000 N    0  0  0  0  0  0  0  0  0  0  0  0
   -3.1963    0.1879    0.0000 N    0  0  0  0  0  0  0  0  0  0  0  0
    1.5587    2.6866    0.0000 N    0  0  0  0  0  0  0  0  0  0  0  0
    2.4843    1.3301    0.0000 N    0  0  0  0  0  0  0  0  0  0  0  0
   -2.0571    0.5990    0.0000 N    0  0  0  0  0  0  0  0  0  0  0  0
    3.1963    2.5633    0.0000 N    0  0  0  0  0  0  0  0  0  0  0  0
    3.9083    2.1522    0.0000 C    0  0  0  0  0  0  0  0  0  0  0  0
    4.6203    2.5633    0.0000 C    0  0  0  0  0  0  0  0  0  0  0  0
   -2.7691    1.0101    0.0000 C    0  0  0  0  0  0  0  0  0  0  0  0
   -2.7691    1.8322    0.0000 C    0  0  0  0  0  0  0  0  0  0  0  0
   -3.9083   -0.2231    0.0000 C    0  0  0  0  0  0  0  0  0  0  0  0
    1.7723    0.9190    0.0000 C    0  0  0  0  0  0  0  0  0  0  0  0
    1.7723    0.0969    0.0000 C    0  0  0  0  0  0  0  0  0  0  0  0
    1.5587    3.5088    0.0000 C    0  0  0  0  0  0  0  0  0  0  0  0
    0.8468    3.9198    0.0000 C    0  0  0  0  0  0  0  0  0  0  0  0
   -1.3120   -1.8860    0.0000 C    0  0  0  0  0  0  0  0  0  0  0  0
   -1.2404   -2.7050    0.0000 C    0  0  0  0  0  0  0  0  0  0  0  0
    0.8468    2.2756    0.0000 C    0  0  0  0  0  0  0  0  0  0  0  0
    3.1963    0.9190    0.0000 C    0  0  0  0  0  0  0  0  0  0  0  0
   -3.1963    1.0101    0.0000 C    0  0  0  0  0  0  0  0  0  0  0  0
   -2.6869   -2.0670    0.0000 C    0  0  0  0  0  0  0  0  0  0  0  0
   -3.3167   -2.5955    0.0000 O    0  0  0  0  0  0  0  0  0  0  0  0
   -3.1963    1.8322    0.0000 O    0  0  0  0  0  0  0  0  0  0  0  0
    3.9083    0.5080    0.0000 O    0  0  0  0  0  0  0  0  0  0  0  0
    0.1348    1.8645    0.0000 O    0  0  0  0  0  0  0  0  0  0  0  0
   -4.0213    1.0101    0.0000 H    0  0  0  0  0  0  0  0  0  0  0  0
   -2.1036   -2.6504    0.0000 H    0  0  0  0  0  0  0  0  0  0  0  0
    2.7838    0.2046    0.0000 H    0  0  0  0  0  0  0  0  0  0  0  0
    0.4343    2.9900    0.0000 H    0  0  0  0  0  0  0  0  0  0  0  0
  2  3  1  0  0
  2  4  2  0  0
  3  5  2  0  0
  4  6  1  0  0
  5  7  1  0  0
  6  7  2  0  0
  8  9  1  0  0
  8 10  2  0  0
  9 11  2  0  0
 10 12  1  0  0
 11 13  1  0  0
 12 13  2  0  0
 14 15  1  0  0
 15 16  2  0  0
 15 17  1  0  0
 17 18  1  0  0
 18 19  1  0  0
 19 20  1  0  0
 20 21  1  0  0
 21 22  1  0  0
 22 23  1  0  0
 23 24  1  0  0
 14 25  1  0  0
 14 26  1  0  0
 25 27  3  0  0
 26 28  3  0  0
 14 29  1  0  0
 14 30  1  0  0
  9 30  1  0  0
  6 29  1  0  0
 30 31  1  0  0
 30 32  1  0  0
 29 33  1  0  0
 29 34  1  0  0
 30 35  2  0  0
 29 36  2  0  0
 36 37  1  0  0
 37 38  1  0  0
 35 39  1  0  0
 39 40  1  0  0
 32 41  1  0  0
  1 41  1  0  0
 34 42  1  0  0
 42 43  1  0  0
 33 44  1  0  0
 44 45  1  0  0
 31 46  1  0  0
 46 47  1  0  0
 33 48  1  0  0
 34 49  1  0  0
 32 50  1  0  0
 31 51  1  0  0
 51 52  2  0  0
 50 53  2  0  0
 49 54  2  0  0
 48 55  2  0  0
 50 56  1  0  0
 51 57  1  0  0
 49 58  1  0  0
 48 59  1  0  0
M  END
> <NMREDATA_VERSION>
1.1

> <NMREDATA_LEVEL>
0

> <NMREDATA_SOLVENT>
toluene

> <NMREDATA_TEMPERATURE>
223

> <NMREDATA_FORMULA>
C39H61N6O7P2Rh

> <NMREDATA_SMILES>
CCCCCCCCC(=O)[Rh]([P](=NCC)(c1ccccc1)(N(C=O)CC)N(C=O)CC)([P](=NCC)(c1ccccc1)(N(C=O)CC)N(C=O)CC)(C#[O])C#[O]

> <NMREDATA_ASSIGNMENT>
Rh14, -70.00, 14

> <NMREDATA_1D_103Rh>
-70.00, L=Rh14

$$$$
