
  ACD/LABS02222414212D

 22 23  0  0  0  0  0  0  0  0  1 V2000
   18.4607   -7.1106    0.0000 C    0  0  0  0  0  0  0  0  0  0  0  0
   19.8485   -7.9118    0.0000 C    0  0  0  0  0  0  0  0  0  0  0  0
   20.3965   -9.4176    0.0000 C    0  0  0  0  0  0  0  0  0  0  0  0
   19.8485  -10.9234    0.0000 C    0  0  0  0  0  0  0  0  0  0  0  0
   18.4607  -11.7246    0.0000 C    0  0  0  0  0  0  0  0  0  0  0  0
   16.8827  -11.4463    0.0000 C    0  0  0  0  0  0  0  0  0  0  0  0
   15.8527  -10.2188    0.0000 C    0  0  0  0  0  0  0  0  0  0  0  0
   15.8527   -8.6164    0.0000 C    0  0  0  0  0  0  0  0  0  0  0  0
   16.8827   -7.3889    0.0000 C    0  0  0  0  0  0  0  0  0  0  0  0
   16.0815  -12.8340    0.0000 Rh   0  0  0  0  0  0  0  0  0  0  0  0
   16.7332  -14.2979    0.0000 P    0  0  0  0  0  0  0  0  0  0  0  0
   15.5424  -15.3701    0.0000 P    0  0  0  0  0  0  0  0  0  0  0  0
   14.1547  -14.5689    0.0000 C    0  0  0  0  0  0  0  0  0  0  0  0
   14.4878  -13.0015    0.0000 C    0  0  0  0  0  0  0  0  0  0  0  0
   12.6908  -15.2207    0.0000 C    0  0  0  0  0  0  0  0  0  0  0  0
   11.3944  -14.2788    0.0000 C    0  0  0  0  0  0  0  0  0  0  0  0
    9.9306  -14.9306    0.0000 C    0  0  0  0  0  0  0  0  0  0  0  0
    8.6342  -13.9887    0.0000 C    0  0  0  0  0  0  0  0  0  0  0  0
   13.4156  -11.8107    0.0000 C    0  0  0  0  0  0  0  0  0  0  0  0
   11.8482  -12.1439    0.0000 C    0  0  0  0  0  0  0  0  0  0  0  0
   10.7760  -10.9531    0.0000 C    0  0  0  0  0  0  0  0  0  0  0  0
    9.2086  -11.2862    0.0000 C    0  0  0  0  0  0  0  0  0  0  0  0
  1  2  1  0  0  0  0
  2  3  2  0  0  0  0
  3  4  1  0  0  0  0
  4  5  2  0  0  0  0
  5  6  1  0  0  0  0
  6  7  2  0  0  0  0
  7  8  2  0  0  0  0
  8  9  1  0  0  0  0
  9  1  2  0  0  0  0
  6 10  1  0  0  0  0
 10 11  1  0  0  0  0
 11 12  2  0  0  0  0
 12 13  1  0  0  0  0
 13 14  2  0  0  0  0
 10 14  1  0  0  0  0
 13 15  1  0  0  0  0
 15 16  1  0  0  0  0
 16 17  1  0  0  0  0
 17 18  1  0  0  0  0
 14 19  1  0  0  0  0
 19 20  1  0  0  0  0
 20 21  1  0  0  0  0
 21 22  1  0  0  0  0
M  END
> <NMREDATA_VERSION>
1.1

> <NMREDATA_LEVEL>
0

> <NMREDATA_SOLVENT>
toluene-d8

> <NMREDATA_TEMPERATURE>
300

> <NMREDATA_FORMULA>
C19H25P2Rh

> <NMREDATA_SMILES>
CCCCC1=C(CCCC)P=P[Rh]1C1=C=C/C=C\C=C/C=C\1

> <NMREDATA_ASSIGNMENT>
Rh10, -1932.00, 10

> <NMREDATA_1D_103Rh>
-1932.00, L=Rh10

$$$$
