
  ACD/LABS03282419352D

 81 92  0  0  0  0  0  0  0  0  1 V2000
   10.1853  -16.7932    0.0000 C    0  0  0  0  0  0  0  0  0  0  0  0
    9.9521  -18.1022    0.0000 C    0  0  0  0  0  0  0  0  0  0  0  0
   11.4361  -16.3480    0.0000 C    0  0  0  0  0  0  0  0  0  0  0  0
   10.9690  -18.9662    0.0000 C    0  0  0  0  0  0  0  0  0  0  0  0
   12.4571  -17.2038    0.0000 C    0  0  0  0  0  0  0  0  0  0  0  0
   12.2164  -18.5085    0.0000 C    0  0  0  0  0  0  0  0  0  0  0  0
   12.9026  -18.9153    0.0000 C    0  0  0  0  0  0  0  0  0  0  0  0
   13.1296  -20.2237    0.0000 C    0  0  0  0  0  0  0  0  0  0  0  0
   13.9269  -18.0624    0.0000 C    0  0  0  0  0  0  0  0  0  0  0  0
   14.3817  -20.6803    0.0000 C    0  0  0  0  0  0  0  0  0  0  0  0
   15.1715  -18.5147    0.0000 C    0  0  0  0  0  0  0  0  0  0  0  0
   15.4063  -19.8282    0.0000 C    0  0  0  0  0  0  0  0  0  0  0  0
   13.2547  -15.5032    0.0000 C    0  0  0  0  0  0  0  0  0  0  0  0
   14.1105  -14.4822    0.0000 C    0  0  0  0  0  0  0  0  0  0  0  0
   11.9457  -15.2700    0.0000 C    0  0  0  0  0  0  0  0  0  0  0  0
   13.6653  -13.2314    0.0000 C    0  0  0  0  0  0  0  0  0  0  0  0
   11.4922  -14.0151    0.0000 C    0  0  0  0  0  0  0  0  0  0  0  0
   12.3563  -12.9982    0.0000 C    0  0  0  0  0  0  0  0  0  0  0  0
   16.0199  -18.8717    0.0000 C    0  0  0  0  0  0  0  0  0  0  0  0
   17.0448  -18.0191    0.0000 C    0  0  0  0  0  0  0  0  0  0  0  0
   16.2474  -20.1804    0.0000 C    0  0  0  0  0  0  0  0  0  0  0  0
   18.2889  -18.4711    0.0000 C    0  0  0  0  0  0  0  0  0  0  0  0
   17.4995  -20.6370    0.0000 C    0  0  0  0  0  0  0  0  0  0  0  0
   18.5241  -19.7849    0.0000 C    0  0  0  0  0  0  0  0  0  0  0  0
   21.6097  -14.9722    0.0000 C    0  0  0  0  0  0  0  0  0  0  0  0
   22.7620  -15.6375    0.0000 C    0  0  0  0  0  0  0  0  0  0  0  0
   20.4616  -15.6302    0.0000 C    0  0  0  0  0  0  0  0  0  0  0  0
   22.7657  -16.9605    0.0000 C    0  0  0  0  0  0  0  0  0  0  0  0
   20.4612  -16.9615    0.0000 C    0  0  0  0  0  0  0  0  0  0  0  0
   21.6135  -17.6267    0.0000 C    0  0  0  0  0  0  0  0  0  0  0  0
   20.5586  -20.9081    0.0000 C    0  0  0  0  0  0  0  0  0  0  0  0
   21.8753  -20.6852    0.0000 C    0  0  0  0  0  0  0  0  0  0  0  0
   19.7094  -19.8959    0.0000 C    0  0  0  0  0  0  0  0  0  0  0  0
   22.3319  -19.4331    0.0000 C    0  0  0  0  0  0  0  0  0  0  0  0
   20.1660  -18.6438    0.0000 C    0  0  0  0  0  0  0  0  0  0  0  0
   21.4747  -18.4163    0.0000 C    0  0  0  0  0  0  0  0  0  0  0  0
   11.3285   -6.2819    0.0000 C    0  0  0  0  0  0  0  0  0  0  0  0
   10.0074   -6.5123    0.0000 C    0  0  0  0  0  0  0  0  0  0  0  0
   12.1733   -7.3016    0.0000 C    0  0  0  0  0  0  0  0  0  0  0  0
    9.5554   -7.7564    0.0000 C    0  0  0  0  0  0  0  0  0  0  0  0
   11.7167   -8.5537    0.0000 C    0  0  0  0  0  0  0  0  0  0  0  0
   10.4080   -8.7812    0.0000 C    0  0  0  0  0  0  0  0  0  0  0  0
   11.7839  -11.7367    0.0000 C    0  0  0  0  0  0  0  0  0  0  0  0
   10.7639  -12.5808    0.0000 C    0  0  0  0  0  0  0  0  0  0  0  0
   11.5566  -10.4275    0.0000 C    0  0  0  0  0  0  0  0  0  0  0  0
    9.5118  -12.1242    0.0000 C    0  0  0  0  0  0  0  0  0  0  0  0
   10.3045   -9.9709    0.0000 C    0  0  0  0  0  0  0  0  0  0  0  0
    9.2850  -10.8153    0.0000 C    0  0  0  0  0  0  0  0  0  0  0  0
   13.3630   -7.4051    0.0000 C    0  0  0  0  0  0  0  0  0  0  0  0
   14.3878   -6.5525    0.0000 C    0  0  0  0  0  0  0  0  0  0  0  0
   13.5985   -8.7184    0.0000 C    0  0  0  0  0  0  0  0  0  0  0  0
   15.6396   -7.0096    0.0000 C    0  0  0  0  0  0  0  0  0  0  0  0
   14.8426   -9.1704    0.0000 C    0  0  0  0  0  0  0  0  0  0  0  0
   15.8628   -8.3258    0.0000 C    0  0  0  0  0  0  0  0  0  0  0  0
   18.6788  -11.3752    0.0000 C    0  0  0  0  0  0  0  0  0  0  0  0
   19.9339  -10.9225    0.0000 C    0  0  0  0  0  0  0  0  0  0  0  0
   17.6701  -10.5166    0.0000 C    0  0  0  0  0  0  0  0  0  0  0  0
   20.1674   -9.6131    0.0000 C    0  0  0  0  0  0  0  0  0  0  0  0
   17.9036   -9.2071    0.0000 C    0  0  0  0  0  0  0  0  0  0  0  0
   19.1502   -8.7495    0.0000 C    0  0  0  0  0  0  0  0  0  0  0  0
   20.4302  -13.8407    0.0000 C    0  0  0  0  0  0  0  0  0  0  0  0
   19.7761  -12.6849    0.0000 C    0  0  0  0  0  0  0  0  0  0  0  0
   21.7647  -13.8530    0.0000 C    0  0  0  0  0  0  0  0  0  0  0  0
   20.4494  -11.5372    0.0000 C    0  0  0  0  0  0  0  0  0  0  0  0
   22.4297  -12.7012    0.0000 C    0  0  0  0  0  0  0  0  0  0  0  0
   21.7755  -11.5453    0.0000 C    0  0  0  0  0  0  0  0  0  0  0  0
   14.9761  -13.2313    0.0000 C    0  0  0  0  0  0  0  0  0  0  0  0
   16.2772  -13.4599    0.0000 C    0  0  0  0  0  0  0  0  0  0  0  0
   14.5232  -11.9767    0.0000 C    0  0  0  0  0  0  0  0  0  0  0  0
   17.1286  -12.4465    0.0000 C    0  0  0  0  0  0  0  0  0  0  0  0
   15.3824  -10.9671    0.0000 C    0  0  0  0  0  0  0  0  0  0  0  0
   16.6911  -11.2007    0.0000 C    0  0  0  0  0  0  0  0  0  0  0  0
   17.4523  -15.3978    0.0000 Rh   0  0  0  0  0  0  0  0  0  0  0  0
   16.9959  -16.6494    0.0000 H    0  0  0  0  0  0  0  0  0  0  0  0
   18.7564  -15.1783    0.0000 H    0  0  0  0  0  0  0  0  0  0  0  0
   19.3134  -17.6190    0.0000 P    0  0  0  0  0  0  0  0  0  0  0  0
   12.5737   -9.5710    0.0000 P    0  0  0  0  0  0  0  0  0  0  0  0
   18.4456  -12.6843    0.0000 P    0  0  0  0  0  0  0  0  0  0  0  0
   16.2019  -15.8432    0.0000 N    0  0  0  0  0  0  0  0  0  0  0  0
   14.9468  -16.2959    0.0000 C    0  0  0  0  0  0  0  0  0  0  0  0
   13.6999  -16.7540    0.0000 B    0  0  0  0  0  0  0  0  0  0  0  0
  1  2  1  0  0  0  0
  1  3  2  0  0  0  0
  2  4  2  0  0  0  0
  3  5  1  0  0  0  0
  4  6  1  0  0  0  0
  5  6  2  0  0  0  0
  7  8  1  0  0  0  0
  7  9  2  0  0  0  0
  8 10  2  0  0  0  0
  9 11  1  0  0  0  0
 10 12  1  0  0  0  0
 11 12  2  0  0  0  0
 13 14  1  0  0  0  0
 13 15  2  0  0  0  0
 14 16  2  0  0  0  0
 15 17  1  0  0  0  0
 16 18  1  0  0  0  0
 17 18  2  0  0  0  0
 19 20  1  0  0  0  0
 19 21  2  0  0  0  0
 20 22  2  0  0  0  0
 21 23  1  0  0  0  0
 22 24  1  0  0  0  0
 23 24  2  0  0  0  0
 25 26  1  0  0  0  0
 25 27  2  0  0  0  0
 26 28  2  0  0  0  0
 27 29  1  0  0  0  0
 28 30  1  0  0  0  0
 29 30  2  0  0  0  0
 31 32  1  0  0  0  0
 31 33  2  0  0  0  0
 32 34  2  0  0  0  0
 33 35  1  0  0  0  0
 34 36  1  0  0  0  0
 35 36  2  0  0  0  0
 37 38  1  0  0  0  0
 37 39  2  0  0  0  0
 38 40  2  0  0  0  0
 39 41  1  0  0  0  0
 40 42  1  0  0  0  0
 41 42  2  0  0  0  0
 43 44  1  0  0  0  0
 43 45  2  0  0  0  0
 44 46  2  0  0  0  0
 45 47  1  0  0  0  0
 46 48  1  0  0  0  0
 47 48  2  0  0  0  0
 49 50  1  0  0  0  0
 49 51  2  0  0  0  0
 50 52  2  0  0  0  0
 51 53  1  0  0  0  0
 52 54  1  0  0  0  0
 53 54  2  0  0  0  0
 55 56  1  0  0  0  0
 55 57  2  0  0  0  0
 56 58  2  0  0  0  0
 57 59  1  0  0  0  0
 58 60  1  0  0  0  0
 59 60  2  0  0  0  0
 61 62  1  0  0  0  0
 61 63  2  0  0  0  0
 62 64  2  0  0  0  0
 63 65  1  0  0  0  0
 64 66  1  0  0  0  0
 65 66  2  0  0  0  0
 67 68  1  0  0  0  0
 67 69  2  0  0  0  0
 68 70  2  0  0  0  0
 69 71  1  0  0  0  0
 70 72  1  0  0  0  0
 71 72  2  0  0  0  0
 73 74  1  0  0  0  0
 73 75  1  0  0  0  0
 73 76  1  0  0  0  0
 73 77  1  0  0  0  0
 73 78  1  0  0  0  0
 70 78  1  0  0  0  0
 62 78  1  0  0  0  0
 55 78  1  0  0  0  0
 51 77  1  0  0  0  0
 45 77  1  0  0  0  0
 41 77  1  0  0  0  0
 35 76  1  0  0  0  0
 29 76  1  0  0  0  0
 22 76  1  0  0  0  0
 79 80  3  0  0  0  0
 73 79  1  0  0  0  0
 80 81  1  0  0  0  0
 13 81  1  0  0  0  0
  9 81  1  0  0  0  0
  5 81  1  0  0  0  0
M  END
> <NMREDATA_VERSION>
1.1

> <NMREDATA_LEVEL>
0

> <NMREDATA_SOLVENT>
DCCl3

> <NMREDATA_TEMPERATURE>
247

> <NMREDATA_FORMULA>
C73H66BNP3Rh

> <NMREDATA_SMILES>
c1ccc(cc1)[B](c1ccccc1)(c1ccccc1)C#N[RhH2](P(c1ccccc1)(c1ccccc1)c1ccccc1)(P(c1ccccc1)(c1ccccc1)c1ccccc1)P(c1ccccc1)(c1ccccc1)c1ccccc1

> <NMREDATA_ASSIGNMENT>
Rh73, -40.00, 73

> <NMREDATA_1D_103Rh>
-40.00, L=Rh73

$$$$
