
  ACD/LABS03262412112D

 41 43  0  0  0  0  0  0  0  0  1 V2000
   16.2179   -3.8084    0.0000 C    0  0  0  0  0  0  0  0  0  0  0  0
   16.2179   -5.1384    0.0000 C    0  0  0  0  0  0  0  0  0  0  0  0
   15.0661   -3.1434    0.0000 C    0  0  0  0  0  0  0  0  0  0  0  0
   15.0661   -5.8034    0.0000 C    0  0  0  0  0  0  0  0  0  0  0  0
   13.9143   -3.8084    0.0000 C    0  0  0  0  0  0  0  0  0  0  0  0
   13.9143   -5.1384    0.0000 C    0  0  0  0  0  0  0  0  0  0  0  0
   10.4588  -12.4534    0.0000 O    0  0  0  0  0  0  0  0  0  0  0  0
   11.6106  -11.7884    0.0000 N    0  0  0  0  0  0  0  0  0  0  0  0
   12.7624  -12.4534    0.0000 C    0  0  0  0  0  0  0  0  0  0  0  0
   12.7624  -13.7834    0.0000 C    0  0  0  0  0  0  0  0  0  0  0  0
   13.9143  -11.7884    0.0000 C    0  0  0  0  0  0  0  0  0  0  0  0
   15.0661  -12.4534    0.0000 C    0  0  0  0  0  0  0  0  0  0  0  0
   13.9143  -10.4584    0.0000 N    0  0  0  0  0  0  0  0  0  0  0  0
   15.0661   -9.7934    0.0000 O    0  0  0  0  0  0  0  0  0  0  0  0
    9.0811  -11.9189    0.0000 O    0  0  0  0  0  0  0  0  0  0  0  0
    9.7461  -10.7670    0.0000 N    0  0  0  0  0  0  0  0  0  0  0  0
   11.0761  -10.7670    0.0000 C    0  0  0  0  0  0  0  0  0  0  0  0
   11.7411  -11.9189    0.0000 C    0  0  0  0  0  0  0  0  0  0  0  0
   11.7411   -9.6152    0.0000 C    0  0  0  0  0  0  0  0  0  0  0  0
   11.0761   -8.4634    0.0000 C    0  0  0  0  0  0  0  0  0  0  0  0
   13.0711   -9.6152    0.0000 N    0  0  0  0  0  0  0  0  0  0  0  0
   13.7361   -8.4634    0.0000 O    0  0  0  0  0  0  0  0  0  0  0  0
   15.0661   -8.4634    0.0000 Rh   0  0  0  0  0  0  0  0  0  0  0  0
   16.3961   -8.4634    0.0000 C    0  0  0  0  0  0  0  0  0  0  0  0
   15.0661   -7.1334    0.0000 P    0  0  0  0  0  0  0  0  0  0  0  0
   16.3961   -7.1334    0.0000 C    0  0  0  0  0  0  0  0  0  0  0  0
   17.0611   -5.9816    0.0000 C    0  0  0  0  0  0  0  0  0  0  0  0
   17.0611   -8.2852    0.0000 C    0  0  0  0  0  0  0  0  0  0  0  0
   18.3911   -5.9816    0.0000 C    0  0  0  0  0  0  0  0  0  0  0  0
   18.3911   -8.2852    0.0000 C    0  0  0  0  0  0  0  0  0  0  0  0
   19.0561   -7.1334    0.0000 C    0  0  0  0  0  0  0  0  0  0  0  0
   13.7361   -7.1334    0.0000 C    0  0  0  0  0  0  0  0  0  0  0  0
   13.0711   -8.2852    0.0000 C    0  0  0  0  0  0  0  0  0  0  0  0
   13.0711   -5.9816    0.0000 C    0  0  0  0  0  0  0  0  0  0  0  0
   11.7411   -8.2852    0.0000 C    0  0  0  0  0  0  0  0  0  0  0  0
   11.7411   -5.9816    0.0000 C    0  0  0  0  0  0  0  0  0  0  0  0
   11.0761   -7.1334    0.0000 C    0  0  0  0  0  0  0  0  0  0  0  0
   17.0611   -9.6152    0.0000 C    0  0  0  0  0  0  0  0  0  0  0  0
   18.3911   -9.6152    0.0000 C    0  0  0  0  0  0  0  0  0  0  0  0
   19.0561  -10.7670    0.0000 C    0  0  0  0  0  0  0  0  0  0  0  0
   20.3861  -10.7670    0.0000 C    0  0  0  0  0  0  0  0  0  0  0  0
  1  2  1  0  0  0  0
  1  3  2  0  0  0  0
  2  4  2  0  0  0  0
  3  5  1  0  0  0  0
  4  6  1  0  0  0  0
  5  6  2  0  0  0  0
  7  8  1  0  0  0  0
  8  9  2  0  0  0  0
  9 10  1  0  0  0  0
  9 11  1  0  0  0  0
 11 12  1  0  0  0  0
 11 13  2  0  0  0  0
 13 14  1  0  0  0  0
 15 16  1  0  0  0  0
 16 17  2  0  0  0  0
 17 18  1  0  0  0  0
 17 19  1  0  0  0  0
 19 20  1  0  0  0  0
 19 21  2  0  0  0  0
 21 22  1  0  0  0  0
 22 23  1  0  0  0  0
 14 23  1  0  0  0  0
 23 24  1  0  0  0  0
 23 25  1  0  0  0  0
 26 27  1  0  0  0  0
 26 28  2  0  0  0  0
 27 29  2  0  0  0  0
 28 30  1  0  0  0  0
 29 31  1  0  0  0  0
 30 31  2  0  0  0  0
 25 26  1  0  0  0  0
 32 33  1  0  0  0  0
 32 34  2  0  0  0  0
 33 35  2  0  0  0  0
 34 36  1  0  0  0  0
 35 37  1  0  0  0  0
 36 37  2  0  0  0  0
 25 32  1  0  0  0  0
  4 25  1  0  0  0  0
 24 38  1  0  0  0  0
 38 39  1  0  0  0  0
 39 40  1  0  0  0  0
 40 41  2  0  0  0  0
M  END
> <NMREDATA_VERSION>
1.1

> <NMREDATA_LEVEL>
0

> <NMREDATA_SOLVENT>
DCCl3

> <NMREDATA_TEMPERATURE>
298

> <NMREDATA_FORMULA>
C31H39N4O4PRh

> <NMREDATA_SMILES>
C=CCCC[Rh](P(c1ccccc1)(c1ccccc1)c1ccccc1)(O/N=C(/C(=N/O)/C)\C)O/N=C(/C(=N/O)/C)\C

> <NMREDATA_ASSIGNMENT>
Rh23, 2290.00, 23

> <NMREDATA_1D_103Rh>
2290.00, L=Rh23

$$$$
