
  ACD/LABS03242411402D

 13 12  0  0  0  0  0  0  0  0  1 V2000
    9.1664   -7.1085    0.0000 O    0  0  0  0  0  0  0  0  0  0  0  0
   10.4964   -7.1085    0.0000 N    0  0  0  0  0  0  0  0  0  0  0  0
   11.1614   -8.2603    0.0000 C    0  0  0  0  0  0  0  0  0  0  0  0
   10.4964   -9.4121    0.0000 C    0  0  0  0  0  0  0  0  0  0  0  0
   12.4914   -8.2603    0.0000 C    0  0  0  0  0  0  0  0  0  0  0  0
   13.1564   -9.4121    0.0000 C    0  0  0  0  0  0  0  0  0  0  0  0
   13.1564   -7.1085    0.0000 N    0  0  0  0  0  0  0  0  0  0  0  0
   14.4864   -7.1085    0.0000 O    0  0  0  0  0  0  0  0  0  0  0  0
   15.1514   -5.9567    0.0000 Rh   0  0  0  0  0  0  0  0  0  0  0  0
   14.4864   -4.8049    0.0000 C    0  0  0  0  0  0  0  0  0  0  0  0
   16.4814   -5.9567    0.0000 S    0  0  0  0  0  0  0  0  0  0  0  0
   17.1464   -4.8049    0.0000 C    0  0  0  0  0  0  0  0  0  0  0  0
   17.1464   -7.1085    0.0000 C    0  0  0  0  0  0  0  0  0  0  0  0
  1  2  1  0  0  0  0
  2  3  2  0  0  0  0
  3  4  1  0  0  0  0
  3  5  1  0  0  0  0
  5  6  1  0  0  0  0
  5  7  2  0  0  0  0
  7  8  1  0  0  0  0
  8  9  1  0  0  0  0
  9 10  1  0  0  0  0
  9 11  1  0  0  0  0
 11 12  1  0  0  0  0
 11 13  1  0  0  0  0
M  END
> <NMREDATA_VERSION>
1.1

> <NMREDATA_LEVEL>
0

> <NMREDATA_SOLVENT>
DCCl3

> <NMREDATA_TEMPERATURE>
298

> <NMREDATA_FORMULA>
C7H17N2O2RhS

> <NMREDATA_SMILES>
O/N=C(/C(=N/O[Rh](S(C)C)C)/C)\C

> <NMREDATA_ASSIGNMENT>
Rh9, 2214.00, 9

> <NMREDATA_1D_103Rh>
2214.00, L=Rh9

$$$$
