
  ACD/LABS04022410302D

 11 10  0  0  0  0  0  0  0  0  2 V2000
   14.5619  -17.3738    0.0000 Rh   0  7  0  0  0  0  0  0  0  0  0  0
   15.8806  -17.3701    0.0000 N    0  0  0  0  0  0  0  0  0  0  0  0
   16.5456  -18.5219    0.0000 O    0  5  0  0  0  0  0  0  0  0  0  0
   16.5508  -16.2255    0.0000 O    0  0  0  0  0  0  0  0  0  0  0  0
   13.2433  -17.3775    0.0000 N    0  0  0  0  0  0  0  0  0  0  0  0
   12.5783  -16.2257    0.0000 O    0  5  0  0  0  0  0  0  0  0  0  0
   12.5730  -18.5221    0.0000 O    0  0  0  0  0  0  0  0  0  0  0  0
   15.2200  -16.2260    0.0000 Cl   0  0  0  0  0  0  0  0  0  0  0  0
   13.9038  -18.5216    0.0000 Cl   0  0  0  0  0  0  0  0  0  0  0  0
   13.8969  -16.2220    0.0000 Cl   0  0  0  0  0  0  0  0  0  0  0  0
   15.2225  -18.5179    0.0000 Cl   0  0  0  0  0  0  0  0  0  0  0  0
  2  3  1  0  0  0  0
  2  4  2  0  0  0  0
  1  2  1  0  0  0  0
  5  6  1  0  0  0  0
  5  7  2  0  0  0  0
  1  5  1  0  0  0  0
  1  8  1  0  0  0  0
  1  9  1  0  0  0  0
  1 10  1  0  0  0  0
  1 11  1  0  0  0  0
M  END
> <NMREDATA_VERSION>
1.1

> <NMREDATA_LEVEL>
0

> <NMREDATA_SOLVENT>
H2O

> <NMREDATA_TEMPERATURE>
298

> <NMREDATA_FORMULA>
Cl4H4N2O4Rh

> <NMREDATA_SMILES>
ON(=O)[Rh](N(=O)O)(Cl)(Cl)(Cl)Cl

> <NMREDATA_ASSIGNMENT>
Rh1, 6740.00, 1

> <NMREDATA_1D_103Rh>
6740.00, L=Rh1

$$$$
