
  ACD/LABS03222419082D

 37 39  0  0  0  0  0  0  0  0  2 V2000
   14.4760   -7.9192    0.0000 B    0  0  0  0  0  0  0  0  0  0  0  0
   15.5673   -8.6736    0.0000 N    0  0  0  0  0  0  0  0  0  0  0  0
   15.6119  -10.0050    0.0000 C    0  0  0  0  0  0  0  0  0  0  0  0
   16.8189   -8.2209    0.0000 N    0  0  0  0  0  0  0  0  0  0  0  0
   16.8898  -10.3689    0.0000 C    0  0  0  0  0  0  0  0  0  0  0  0
   17.6355   -9.2683    0.0000 C    0  0  0  0  0  0  0  0  0  0  0  0
   14.0233   -6.6769    0.0000 N    0  0  0  0  0  0  0  0  0  0  0  0
   12.7451   -6.3041    0.0000 C    0  0  0  0  0  0  0  0  0  0  0  0
   14.7597   -5.5763    0.0000 N    0  0  0  0  0  0  0  0  0  0  0  0
   12.7008   -4.9729    0.0000 C    0  0  0  0  0  0  0  0  0  0  0  0
   13.9524   -4.5289    0.0000 C    0  0  0  0  0  0  0  0  0  0  0  0
   13.1712   -8.1943    0.0000 N    0  0  0  0  0  0  0  0  0  0  0  0
   12.6210   -9.4014    0.0000 C    0  0  0  0  0  0  0  0  0  0  0  0
   12.1860   -7.2979    0.0000 N    0  0  0  0  0  0  0  0  0  0  0  0
   11.2985   -9.2593    0.0000 C    0  0  0  0  0  0  0  0  0  0  0  0
   11.0321   -7.9548    0.0000 C    0  0  0  0  0  0  0  0  0  0  0  0
   14.1031   -9.1975    0.0000 H    0  0  0  0  0  0  0  0  0  0  0  0
   11.4761   -6.7215    0.0000 C    0  0  0  0  0  0  0  0  0  0  0  0
   14.3250   -3.2510    0.0000 C    0  0  0  0  0  0  0  0  0  0  0  0
   14.5648  -10.8126    0.0000 C    0  0  0  0  0  0  0  0  0  0  0  0
   18.9666   -9.2327    0.0000 C    0  0  0  0  0  0  0  0  0  0  0  0
    9.8161   -7.4044    0.0000 C    0  0  0  0  0  0  0  0  0  0  0  0
   13.2866  -10.5642    0.0000 C    0  0  0  0  0  0  0  0  0  0  0  0
   17.0318   -6.5705    0.0000 Rh   0  3  0  0  0  0  0  0  0  0  0  0
   18.0170   -7.4576    0.0000 C    0  0  0  0  0  0  0  0  0  0  0  0
   16.4105   -5.3990    0.0000 C    0  0  0  0  0  0  0  0  0  0  0  0
   15.7805   -4.2183    0.0000 O    0  0  0  0  0  0  0  0  0  0  0  0
   18.2033   -5.9492    0.0000 P    0  0  0  0  0  0  0  0  0  0  0  0
   18.8336   -7.1203    0.0000 C    0  0  0  0  0  0  0  0  0  0  0  0
   17.5823   -4.7777    0.0000 C    0  0  0  0  0  0  0  0  0  0  0  0
   19.3764   -5.3225    0.0000 C    0  0  0  0  0  0  0  0  0  0  0  0
   19.4203   -3.9933    0.0000 C    0  0  0  0  0  0  0  0  0  0  0  0
   20.5057   -6.0252    0.0000 C    0  0  0  0  0  0  0  0  0  0  0  0
   20.5936   -3.3667    0.0000 C    0  0  0  0  0  0  0  0  0  0  0  0
   21.6788   -5.3986    0.0000 C    0  0  0  0  0  0  0  0  0  0  0  0
   21.7228   -4.0694    0.0000 C    0  0  0  0  0  0  0  0  0  0  0  0
   24.7733   -7.1788    0.0000 I    0  5  0  0  0  0  0  0  0  0  0  0
  2  3  1  0  0  0  0
  2  4  1  0  0  0  0
  3  5  2  0  0  0  0
  4  6  2  0  0  0  0
  5  6  1  0  0  0  0
  1  2  1  0  0  0  0
  7  8  1  0  0  0  0
  7  9  1  0  0  0  0
  8 10  2  0  0  0  0
  9 11  2  0  0  0  0
 10 11  1  0  0  0  0
  1  7  1  0  0  0  0
 12 13  1  0  0  0  0
 12 14  1  0  0  0  0
 13 15  2  0  0  0  0
 14 16  2  0  0  0  0
 15 16  1  0  0  0  0
  1 12  1  0  0  0  0
  1 17  1  0  0  0  0
  8 18  1  0  0  0  0
 11 19  1  0  0  0  0
  3 20  1  0  0  0  0
  6 21  1  0  0  0  0
 16 22  1  0  0  0  0
 13 23  1  0  0  0  0
  1 24  1  0  0  0  0
 24 25  1  0  0  0  0
 24 26  1  0  0  0  0
 26 27  3  0  0  0  0
 24 28  1  0  0  0  0
 28 29  1  0  0  0  0
 28 30  1  0  0  0  0
 31 32  1  0  0  0  0
 31 33  2  0  0  0  0
 32 34  2  0  0  0  0
 33 35  1  0  0  0  0
 34 36  1  0  0  0  0
 35 36  2  0  0  0  0
 28 31  1  0  0  0  0
M  END
> <NMREDATA_VERSION>
1.1

> <NMREDATA_LEVEL>
0

> <NMREDATA_SOLVENT>
CD2Cl2

> <NMREDATA_TEMPERATURE>
233

> <NMREDATA_FORMULA>
C25H38BIN6OPRh

> <NMREDATA_SMILES>
[O]#C[Rh](P(c1ccccc1)(C)C)([BH](n1nc(cc1C)C)(n1nc(cc1C)C)n1nc(cc1C)C)C.I

> <NMREDATA_ASSIGNMENT>
Rh24, 1169.00, 24

> <NMREDATA_1D_103Rh>
1169.00, L=Rh24

$$$$
