
  ACD/LABS04022410412D

 22 18  0  0  0  0  0  0  0  0  2 V2000
   17.0657  -14.5178    0.0000 K    0  3  0  0  0  0  0  0  0  0  0  0
   18.0431  -14.6460    0.0000 K    0  3  0  0  0  0  0  0  0  0  0  0
   19.0847  -14.8063    0.0000 K    0  3  0  0  0  0  0  0  0  0  0  0
   11.4412  -18.7963    0.0000 Rh   0  7  0  0  0  0  0  0  0  0  0  0
   12.7712  -18.7963    0.0000 S    0  0  0  0  0  0  0  0  0  0  0  0
   13.4362  -17.6444    0.0000 C    0  0  0  0  0  0  0  0  0  0  0  0
   14.1012  -16.4926    0.0000 N    0  0  0  0  0  0  0  0  0  0  0  0
   10.2875  -18.7200    0.0000 S    0  0  0  0  0  0  0  0  0  0  0  0
    9.2139  -18.8162    0.0000 C    0  0  0  0  0  0  0  0  0  0  0  0
    7.7236  -18.9283    0.0000 N    0  0  0  0  0  0  0  0  0  0  0  0
   10.7762  -19.9481    0.0000 S    0  0  0  0  0  0  0  0  0  0  0  0
   11.4412  -21.0999    0.0000 C    0  0  0  0  0  0  0  0  0  0  0  0
   12.1062  -22.2517    0.0000 N    0  0  0  0  0  0  0  0  0  0  0  0
   12.1062  -17.6445    0.0000 S    0  0  0  0  0  0  0  0  0  0  0  0
   11.4412  -16.4926    0.0000 C    0  0  0  0  0  0  0  0  0  0  0  0
   10.7762  -15.3408    0.0000 N    0  0  0  0  0  0  0  0  0  0  0  0
   12.1062  -19.9481    0.0000 N    0  0  0  0  0  0  0  0  0  0  0  0
   13.4362  -19.9481    0.0000 C    0  0  0  0  0  0  0  0  0  0  0  0
   14.7662  -19.9481    0.0000 S    0  0  0  0  0  0  0  0  0  0  0  0
    9.5023  -15.4793    0.0000 N    0  0  0  0  0  0  0  0  0  0  0  0
    8.5248  -13.9890    0.0000 C    0  0  0  0  0  0  0  0  0  0  0  0
    8.0922  -13.3000    0.0000 S    0  0  0  0  0  0  0  0  0  0  0  0
  5  6  1  0  0  0  0
  6  7  3  0  0  0  0
  4  5  1  0  0  0  0
  8  9  1  0  0  0  0
  9 10  3  0  0  0  0
  4  8  1  0  0  0  0
 11 12  1  0  0  0  0
 12 13  3  0  0  0  0
  4 11  1  0  0  0  0
 14 15  1  0  0  0  0
 15 16  3  0  0  0  0
  4 14  1  0  0  0  0
 17 18  2  0  0  0  0
 18 19  2  0  0  0  0
  4 17  1  0  0  0  0
 20 21  2  0  0  0  0
 21 22  2  0  0  0  0
  4 20  1  0  0  0  0
M  END
> <NMREDATA_VERSION>
1.1

> <NMREDATA_LEVEL>
0

> <NMREDATA_SOLVENT>
CD2Cl2

> <NMREDATA_TEMPERATURE>
243

> <NMREDATA_FORMULA>
C6H3K3N6RhS6

> <NMREDATA_SMILES>
N#CS[Rh](N=C=S)(N=C=S)(SC#N)(SC#N)SC#N.[KH].[KH].[KH]

> <NMREDATA_ASSIGNMENT>
Rh4, 3954.00, 4

> <NMREDATA_1D_103Rh>
3954.00, L=Rh4

$$$$
