
  ACD/LABS02072410522D

 38 41  0  0  0  0  0  0  0  0  1 V2000
   20.0055  -12.4473    0.0000 C    0  0  0  0  0  0  0  0  0  0  0  0
   21.0268  -11.5829    0.0000 C    0  0  0  0  0  0  0  0  0  0  0  0
   20.2448  -13.7528    0.0000 C    0  0  0  0  0  0  0  0  0  0  0  0
   22.2706  -12.0349    0.0000 C    0  0  0  0  0  0  0  0  0  0  0  0
   21.4889  -14.2049    0.0000 C    0  0  0  0  0  0  0  0  0  0  0  0
   22.5102  -13.3405    0.0000 C    0  0  0  0  0  0  0  0  0  0  0  0
   18.2114  -13.7457    0.0000 Rh   0  0  0  0  0  0  0  0  0  0  0  0
   19.0582  -12.7399    0.0000 Cl   0  0  0  0  0  0  0  0  0  0  0  0
   19.2325  -14.6014    0.0000 P    0  0  0  0  0  0  0  0  0  0  0  0
   16.3812  -16.7741    0.0000 C    0  0  0  0  0  0  0  0  0  0  0  0
   17.0468  -17.9262    0.0000 C    0  0  0  0  0  0  0  0  0  0  0  0
   17.0462  -15.6222    0.0000 C    0  0  0  0  0  0  0  0  0  0  0  0
   18.3777  -17.9267    0.0000 C    0  0  0  0  0  0  0  0  0  0  0  0
   18.3768  -15.6226    0.0000 C    0  0  0  0  0  0  0  0  0  0  0  0
   19.0427  -16.7749    0.0000 C    0  0  0  0  0  0  0  0  0  0  0  0
   20.2540  -15.4573    0.0000 C    0  0  0  0  0  0  0  0  0  0  0  0
   20.0203  -16.7659    0.0000 C    0  0  0  0  0  0  0  0  0  0  0  0
   21.0418  -17.6219    0.0000 O    0  0  0  0  0  0  0  0  0  0  0  0
   20.8082  -18.9310    0.0000 C    0  0  0  0  0  0  0  0  0  0  0  0
   13.7226  -11.5020    0.0000 C    0  0  0  0  0  0  0  0  0  0  0  0
   12.7011  -10.6461    0.0000 C    0  0  0  0  0  0  0  0  0  0  0  0
   14.9694  -11.0449    0.0000 C    0  0  0  0  0  0  0  0  0  0  0  0
   12.9299   -9.3451    0.0000 C    0  0  0  0  0  0  0  0  0  0  0  0
   15.1984   -9.7436    0.0000 C    0  0  0  0  0  0  0  0  0  0  0  0
   14.1772   -8.8879    0.0000 C    0  0  0  0  0  0  0  0  0  0  0  0
   15.9905  -11.9006    0.0000 P    0  0  0  0  0  0  0  0  0  0  0  0
   17.2327   -8.6145    0.0000 C    0  0  0  0  0  0  0  0  0  0  0  0
   18.5458   -8.8403    0.0000 C    0  0  0  0  0  0  0  0  0  0  0  0
   16.3888   -9.6324    0.0000 C    0  0  0  0  0  0  0  0  0  0  0  0
   19.0033  -10.0873    0.0000 C    0  0  0  0  0  0  0  0  0  0  0  0
   16.8419  -10.8870    0.0000 C    0  0  0  0  0  0  0  0  0  0  0  0
   18.1551  -11.1128    0.0000 C    0  0  0  0  0  0  0  0  0  0  0  0
   15.1394  -12.9139    0.0000 C    0  0  0  0  0  0  0  0  0  0  0  0
   13.8259  -12.6879    0.0000 C    0  0  0  0  0  0  0  0  0  0  0  0
   12.9745  -13.7015    0.0000 O    0  0  0  0  0  0  0  0  0  0  0  0
   11.6692  -13.4802    0.0000 C    0  0  0  0  0  0  0  0  0  0  0  0
   17.3557  -14.7669    0.0000 C    0  0  0  0  0  0  0  0  0  0  0  0
   16.0504  -14.5456    0.0000 C    0  0  0  0  0  0  0  0  0  0  0  0
  1  2  1  0  0  0  0
  1  3  1  0  0  0  0
  2  4  1  0  0  0  0
  3  5  1  0  0  0  0
  4  6  1  0  0  0  0
  5  6  1  0  0  0  0
  7  8  1  0  0  0  0
  7  9  1  0  0  0  0
  3  9  1  0  0  0  0
 10 11  1  0  0  0  0
 10 12  1  0  0  0  0
 11 13  1  0  0  0  0
 12 14  1  0  0  0  0
 13 15  1  0  0  0  0
 14 15  1  0  0  0  0
  9 14  1  0  0  0  0
  9 16  1  0  0  0  0
 16 17  1  0  0  0  0
 17 18  1  0  0  0  0
 18 19  1  0  0  0  0
 20 21  1  0  0  0  0
 20 22  1  0  0  0  0
 21 23  1  0  0  0  0
 22 24  1  0  0  0  0
 23 25  1  0  0  0  0
 24 25  1  0  0  0  0
 22 26  1  0  0  0  0
 27 28  1  0  0  0  0
 27 29  1  0  0  0  0
 28 30  1  0  0  0  0
 29 31  1  0  0  0  0
 30 32  1  0  0  0  0
 31 32  1  0  0  0  0
 26 31  1  0  0  0  0
 26 33  1  0  0  0  0
 33 34  1  0  0  0  0
 34 35  1  0  0  0  0
 35 36  1  0  0  0  0
  7 26  1  0  0  0  0
  7 37  2  0  0  0  0
 37 38  1  0  0  0  0
M  END
> <NMREDATA_VERSION>
1.1

> <NMREDATA_LEVEL>
0

> <NMREDATA_SOLVENT>
C6D6

> <NMREDATA_TEMPERATURE>
295

> <NMREDATA_FORMULA>
C32H64ClO2P2Rh

> <NMREDATA_SMILES>
COCCP([Rh](=CC)(P(C1CCCCC1)(C1CCCCC1)CCOC)Cl)(C1CCCCC1)C1CCCCC1

> <NMREDATA_ASSIGNMENT>
Rh7, 271.00, 7

> <NMREDATA_1D_103Rh>
271.00, L=Rh7

$$$$
