
  ACD/LABS03292413032D

 70 78  0  0  0  0  0  0  0  0  1 V2000
   27.9387  -19.3730    0.0000 C    0  0  0  0  0  0  0  0  0  0  0  0
   27.7080  -18.0600    0.0000 C    0  0  0  0  0  0  0  0  0  0  0  0
   26.9187  -20.2151    0.0000 C    0  0  0  0  0  0  0  0  0  0  0  0
   26.4573  -17.5992    0.0000 C    0  0  0  0  0  0  0  0  0  0  0  0
   25.6680  -19.7538    0.0000 C    0  0  0  0  0  0  0  0  0  0  0  0
   25.4373  -18.4595    0.0000 C    0  0  0  0  0  0  0  0  0  0  0  0
   30.5110  -21.0404    0.0000 C    0  0  0  0  0  0  0  0  0  0  0  0
   29.6598  -20.0199    0.0000 C    0  0  0  0  0  0  0  0  0  0  0  0
   30.0587  -22.2911    0.0000 C    0  0  0  0  0  0  0  0  0  0  0  0
   28.3468  -20.2506    0.0000 C    0  0  0  0  0  0  0  0  0  0  0  0
   28.7462  -22.5217    0.0000 C    0  0  0  0  0  0  0  0  0  0  0  0
   27.8945  -21.5012    0.0000 C    0  0  0  0  0  0  0  0  0  0  0  0
   24.6303  -14.3171    0.0000 C    0  0  0  0  0  0  0  0  0  0  0  0
   25.6503  -15.1683    0.0000 C    0  0  0  0  0  0  0  0  0  0  0  0
   23.3796  -14.7607    0.0000 C    0  0  0  0  0  0  0  0  0  0  0  0
   25.4110  -16.4813    0.0000 C    0  0  0  0  0  0  0  0  0  0  0  0
   23.1489  -16.0732    0.0000 C    0  0  0  0  0  0  0  0  0  0  0  0
   24.1603  -16.9335    0.0000 C    0  0  0  0  0  0  0  0  0  0  0  0
   20.4529  -16.6233    0.0000 C    0  0  0  0  0  0  0  0  0  0  0  0
   20.2223  -15.3194    0.0000 C    0  0  0  0  0  0  0  0  0  0  0  0
   19.4238  -17.4836    0.0000 C    0  0  0  0  0  0  0  0  0  0  0  0
   18.9716  -14.8581    0.0000 C    0  0  0  0  0  0  0  0  0  0  0  0
   18.1823  -17.0223    0.0000 C    0  0  0  0  0  0  0  0  0  0  0  0
   17.9516  -15.7097    0.0000 C    0  0  0  0  0  0  0  0  0  0  0  0
   17.6054  -24.9166    0.0000 C    0  0  0  0  0  0  0  0  0  0  0  0
   16.2928  -25.1472    0.0000 C    0  0  0  0  0  0  0  0  0  0  0  0
   18.0581  -23.6659    0.0000 C    0  0  0  0  0  0  0  0  0  0  0  0
   15.4412  -24.1181    0.0000 C    0  0  0  0  0  0  0  0  0  0  0  0
   17.2064  -22.6454    0.0000 C    0  0  0  0  0  0  0  0  0  0  0  0
   15.8934  -22.8761    0.0000 C    0  0  0  0  0  0  0  0  0  0  0  0
   22.8914  -22.0249    0.0000 C    0  0  0  0  0  0  0  0  0  0  0  0
   23.7431  -21.0049    0.0000 C    0  0  0  0  0  0  0  0  0  0  0  0
   23.3527  -23.2756    0.0000 C    0  0  0  0  0  0  0  0  0  0  0  0
   25.0561  -21.2351    0.0000 C    0  0  0  0  0  0  0  0  0  0  0  0
   24.6658  -23.5062    0.0000 C    0  0  0  0  0  0  0  0  0  0  0  0
   25.5174  -22.4862    0.0000 C    0  0  0  0  0  0  0  0  0  0  0  0
   16.3106  -21.7319    0.0000 C    0  0  0  0  0  0  0  0  0  0  0  0
   17.4634  -21.0759    0.0000 C    0  0  0  0  0  0  0  0  0  0  0  0
   15.1664  -21.0668    0.0000 C    0  0  0  0  0  0  0  0  0  0  0  0
   17.4725  -19.7451    0.0000 C    0  0  0  0  0  0  0  0  0  0  0  0
   15.1664  -19.7360    0.0000 C    0  0  0  0  0  0  0  0  0  0  0  0
   16.3283  -19.0805    0.0000 C    0  0  0  0  0  0  0  0  0  0  0  0
   21.0030  -24.9698    0.0000 C    0  0  0  0  0  0  0  0  0  0  0  0
   19.9825  -24.1181    0.0000 C    0  0  0  0  0  0  0  0  0  0  0  0
   20.7723  -26.2823    0.0000 C    0  0  0  0  0  0  0  0  0  0  0  0
   18.7318  -24.5703    0.0000 C    0  0  0  0  0  0  0  0  0  0  0  0
   19.5216  -26.7350    0.0000 C    0  0  0  0  0  0  0  0  0  0  0  0
   18.5012  -25.8833    0.0000 C    0  0  0  0  0  0  0  0  0  0  0  0
   22.1558  -19.6919    0.0000 Rh   0  0  0  0  0  0  0  0  0  0  0  0
   22.3865  -21.0049    0.0000 Cl   0  0  0  0  0  0  0  0  0  0  0  0
   23.4592  -19.9312    0.0000 H    0  0  0  0  0  0  0  0  0  0  0  0
   21.7036  -18.4504    0.0000 H    0  0  0  0  0  0  0  0  0  0  0  0
   21.1358  -20.5522    0.0000 P    0  0  0  0  0  0  0  0  0  0  0  0
   20.9051  -19.2488    0.0000 P    0  0  0  0  0  0  0  0  0  0  0  0
   23.1667  -18.8498    0.0000 P    0  0  0  0  0  0  0  0  0  0  0  0
   24.1867  -17.9981    0.0000 C    0  0  0  0  0  0  0  0  0  0  0  0
   22.3246  -17.8298    0.0000 C    0  0  0  0  0  0  0  0  0  0  0  0
   26.5815  -21.7319    0.0000 C    0  0  0  0  0  0  0  0  0  0  0  0
   19.3706  -23.4353    0.0000 C    0  0  0  0  0  0  0  0  0  0  0  0
   21.9074  -16.5254    0.0000 C    0  0  0  0  0  0  0  0  0  0  0  0
   19.6545  -18.7875    0.0000 C    0  0  0  0  0  0  0  0  0  0  0  0
   18.6345  -19.0982    0.0000 C    0  0  0  0  0  0  0  0  0  0  0  0
   21.5880  -21.7942    0.0000 C    0  0  0  0  0  0  0  0  0  0  0  0
   19.9825  -21.2173    0.0000 C    0  0  0  0  0  0  0  0  0  0  0  0
   22.6440  -12.8090    0.0000 C    0  0  0  0  0  0  0  0  0  0  0  0
   21.3928  -12.3476    0.0000 C    0  0  0  0  0  0  0  0  0  0  0  0
   22.8559  -14.1220    0.0000 C    0  0  0  0  0  0  0  0  0  0  0  0
   20.3728  -13.1907    0.0000 C    0  0  0  0  0  0  0  0  0  0  0  0
   21.8364  -14.9731    0.0000 C    0  0  0  0  0  0  0  0  0  0  0  0
   20.5949  -14.5032    0.0000 C    0  0  0  0  0  0  0  0  0  0  0  0
  1  2  1  0  0  0  0
  1  3  2  0  0  0  0
  2  4  2  0  0  0  0
  3  5  1  0  0  0  0
  4  6  1  0  0  0  0
  5  6  2  0  0  0  0
  7  8  1  0  0  0  0
  7  9  2  0  0  0  0
  8 10  2  0  0  0  0
  9 11  1  0  0  0  0
 10 12  1  0  0  0  0
 11 12  2  0  0  0  0
 13 14  1  0  0  0  0
 13 15  2  0  0  0  0
 14 16  2  0  0  0  0
 15 17  1  0  0  0  0
 16 18  1  0  0  0  0
 17 18  2  0  0  0  0
 19 20  1  0  0  0  0
 19 21  2  0  0  0  0
 20 22  2  0  0  0  0
 21 23  1  0  0  0  0
 22 24  1  0  0  0  0
 23 24  2  0  0  0  0
 25 26  1  0  0  0  0
 25 27  2  0  0  0  0
 26 28  2  0  0  0  0
 27 29  1  0  0  0  0
 28 30  1  0  0  0  0
 29 30  2  0  0  0  0
 31 32  1  0  0  0  0
 31 33  2  0  0  0  0
 32 34  2  0  0  0  0
 33 35  1  0  0  0  0
 34 36  1  0  0  0  0
 35 36  2  0  0  0  0
 37 38  1  0  0  0  0
 37 39  2  0  0  0  0
 38 40  2  0  0  0  0
 39 41  1  0  0  0  0
 40 42  1  0  0  0  0
 41 42  2  0  0  0  0
 43 44  1  0  0  0  0
 43 45  2  0  0  0  0
 44 46  2  0  0  0  0
 45 47  1  0  0  0  0
 46 48  1  0  0  0  0
 47 48  2  0  0  0  0
 49 50  1  0  0  0  0
 49 51  1  0  0  0  0
 49 52  1  0  0  0  0
 49 53  1  0  0  0  0
 49 54  1  0  0  0  0
 49 55  1  0  0  0  0
 55 56  1  0  0  0  0
 55 57  1  0  0  0  0
 55 58  1  0  0  0  0
 54 59  1  0  0  0  0
 54 60  1  0  0  0  0
 54 61  1  0  0  0  0
 53 62  1  0  0  0  0
 53 63  1  0  0  0  0
 53 64  1  0  0  0  0
 44 64  1  0  0  0  0
 40 62  1  0  0  0  0
 31 63  1  0  0  0  0
 27 59  1  0  0  0  0
 21 61  1  0  0  0  0
 17 60  1  0  0  0  0
 65 66  1  0  0  0  0
 65 67  2  0  0  0  0
 66 68  2  0  0  0  0
 67 69  1  0  0  0  0
 68 70  1  0  0  0  0
 69 70  2  0  0  0  0
 57 69  1  0  0  0  0
 12 58  1  0  0  0  0
  6 56  1  0  0  0  0
M  END
> <NMREDATA_VERSION>
1.1

> <NMREDATA_LEVEL>
0

> <NMREDATA_SOLVENT>
toluene-d8

> <NMREDATA_TEMPERATURE>
295

> <NMREDATA_FORMULA>
C63H68ClP3Rh

> <NMREDATA_SMILES>
Cl[RhH2](P(Cc1ccccc1)(Cc1ccccc1)Cc1ccccc1)(P(Cc1ccccc1)(Cc1ccccc1)Cc1ccccc1)P(Cc1ccccc1)(Cc1ccccc1)Cc1ccccc1

> <NMREDATA_ASSIGNMENT>
Rh49, -393.00, 49

> <NMREDATA_1D_103Rh>
-393.00, L=Rh49

$$$$
