
  ACD/LABS03122418272D

 62 68  0  0  0  0  0  0  0  0  2 V2000
   22.0732   -8.1963    0.0000 Cl   0  0  0  0  0  0  0  0  0  0  0  0
   21.4322   -7.0861    0.0000 O    0  0  0  0  0  0  0  0  0  0  0  0
   23.1834   -7.5554    0.0000 O    0  0  0  0  0  0  0  0  0  0  0  0
   20.9630   -8.8373    0.0000 O    0  0  0  0  0  0  0  0  0  0  0  0
   22.7142   -9.3065    0.0000 O    0  5  0  0  0  0  0  0  0  0  0  0
   11.5879   -8.9302    0.0000 Rh   0  3  0  0  0  0  0  0  0  0  0  0
   12.3650   -7.5841    0.0000 P    0  0  0  0  0  0  0  0  0  0  0  0
   12.3650  -10.2763    0.0000 P    0  0  0  0  0  0  0  0  0  0  0  0
   13.1422  -11.6224    0.0000 C    0  0  0  0  0  0  0  0  0  0  0  0
   14.6965  -11.6224    0.0000 C    0  0  0  0  0  0  0  0  0  0  0  0
   12.3650  -12.9685    0.0000 C    0  0  0  0  0  0  0  0  0  0  0  0
   15.4737  -12.9685    0.0000 C    0  0  0  0  0  0  0  0  0  0  0  0
   13.1422  -14.3146    0.0000 C    0  0  0  0  0  0  0  0  0  0  0  0
   14.6965  -14.3146    0.0000 C    0  0  0  0  0  0  0  0  0  0  0  0
   13.7111   -9.4991    0.0000 C    0  0  0  0  0  0  0  0  0  0  0  0
   13.7111   -7.9448    0.0000 C    0  0  0  0  0  0  0  0  0  0  0  0
   15.0572  -10.2763    0.0000 C    0  0  0  0  0  0  0  0  0  0  0  0
   15.0572   -7.1676    0.0000 C    0  0  0  0  0  0  0  0  0  0  0  0
   16.4033   -9.4991    0.0000 C    0  0  0  0  0  0  0  0  0  0  0  0
   16.4033   -7.9448    0.0000 C    0  0  0  0  0  0  0  0  0  0  0  0
   13.7111   -8.3613    0.0000 C    0  0  0  0  0  0  0  0  0  0  0  0
   15.0572   -7.5841    0.0000 C    0  0  0  0  0  0  0  0  0  0  0  0
   13.7111   -9.9156    0.0000 C    0  0  0  0  0  0  0  0  0  0  0  0
   16.4033   -8.3613    0.0000 C    0  0  0  0  0  0  0  0  0  0  0  0
   15.0572  -10.6928    0.0000 C    0  0  0  0  0  0  0  0  0  0  0  0
   16.4033   -9.9156    0.0000 C    0  0  0  0  0  0  0  0  0  0  0  0
   11.0189   -6.8069    0.0000 C    0  0  0  0  0  0  0  0  0  0  0  0
    9.6728   -7.5841    0.0000 C    0  0  0  0  0  0  0  0  0  0  0  0
   11.0189   -5.2526    0.0000 C    0  0  0  0  0  0  0  0  0  0  0  0
    8.3267   -6.8069    0.0000 C    0  0  0  0  0  0  0  0  0  0  0  0
    9.6728   -4.4754    0.0000 C    0  0  0  0  0  0  0  0  0  0  0  0
    8.3267   -5.2526    0.0000 C    0  0  0  0  0  0  0  0  0  0  0  0
   13.1422   -6.2380    0.0000 C    0  0  0  0  0  0  0  0  0  0  0  0
   14.6965   -6.2380    0.0000 C    0  0  0  0  0  0  0  0  0  0  0  0
   15.4737   -4.8919    0.0000 P    0  0  0  0  0  0  0  0  0  0  0  0
   17.0280   -4.8919    0.0000 C    0  0  0  0  0  0  0  0  0  0  0  0
   17.8052   -3.5458    0.0000 C    0  0  0  0  0  0  0  0  0  0  0  0
   17.8052   -6.2380    0.0000 C    0  0  0  0  0  0  0  0  0  0  0  0
   19.3596   -3.5458    0.0000 C    0  0  0  0  0  0  0  0  0  0  0  0
   19.3596   -6.2380    0.0000 C    0  0  0  0  0  0  0  0  0  0  0  0
   20.1367   -4.8919    0.0000 C    0  0  0  0  0  0  0  0  0  0  0  0
   14.6965   -3.5458    0.0000 C    0  0  0  0  0  0  0  0  0  0  0  0
   13.1422   -3.5458    0.0000 C    0  0  0  0  0  0  0  0  0  0  0  0
   15.4737   -2.1997    0.0000 C    0  0  0  0  0  0  0  0  0  0  0  0
   12.3650   -2.1997    0.0000 C    0  0  0  0  0  0  0  0  0  0  0  0
   14.6965   -0.8536    0.0000 C    0  0  0  0  0  0  0  0  0  0  0  0
   13.1422   -0.8536    0.0000 C    0  0  0  0  0  0  0  0  0  0  0  0
   11.0189  -11.0535    0.0000 C    0  0  0  0  0  0  0  0  0  0  0  0
   11.0189  -12.6078    0.0000 C    0  0  0  0  0  0  0  0  0  0  0  0
    9.6728  -13.3850    0.0000 P    0  0  0  0  0  0  0  0  0  0  0  0
    8.3267  -12.6078    0.0000 C    0  0  0  0  0  0  0  0  0  0  0  0
    6.9807  -13.3850    0.0000 C    0  0  0  0  0  0  0  0  0  0  0  0
    8.3267  -11.0535    0.0000 C    0  0  0  0  0  0  0  0  0  0  0  0
    5.6346  -12.6078    0.0000 C    0  0  0  0  0  0  0  0  0  0  0  0
    6.9807  -10.2763    0.0000 C    0  0  0  0  0  0  0  0  0  0  0  0
    5.6346  -11.0535    0.0000 C    0  0  0  0  0  0  0  0  0  0  0  0
    9.6728  -14.9393    0.0000 C    0  0  0  0  0  0  0  0  0  0  0  0
   11.0189  -15.7165    0.0000 C    0  0  0  0  0  0  0  0  0  0  0  0
    8.3267  -15.7165    0.0000 C    0  0  0  0  0  0  0  0  0  0  0  0
   11.0189  -17.2708    0.0000 C    0  0  0  0  0  0  0  0  0  0  0  0
    8.3267  -17.2708    0.0000 C    0  0  0  0  0  0  0  0  0  0  0  0
    9.6728  -18.0480    0.0000 C    0  0  0  0  0  0  0  0  0  0  0  0
  1  2  2  0  0  0  0
  1  3  2  0  0  0  0
  1  4  2  0  0  0  0
  1  5  1  0  0  0  0
  6  7  1  0  0  0  0
  6  8  1  0  0  0  0
  9 10  1  0  0  0  0
  9 11  2  0  0  0  0
 10 12  2  0  0  0  0
 11 13  1  0  0  0  0
 12 14  1  0  0  0  0
 13 14  2  0  0  0  0
  8  9  1  0  0  0  0
 15 16  1  0  0  0  0
 15 17  2  0  0  0  0
 16 18  2  0  0  0  0
 17 19  1  0  0  0  0
 18 20  1  0  0  0  0
 19 20  2  0  0  0  0
  8 15  1  0  0  0  0
 21 22  1  0  0  0  0
 21 23  2  0  0  0  0
 22 24  2  0  0  0  0
 23 25  1  0  0  0  0
 24 26  1  0  0  0  0
 25 26  2  0  0  0  0
  7 21  1  0  0  0  0
 27 28  1  0  0  0  0
 27 29  2  0  0  0  0
 28 30  2  0  0  0  0
 29 31  1  0  0  0  0
 30 32  1  0  0  0  0
 31 32  2  0  0  0  0
  7 27  1  0  0  0  0
  7 33  1  0  0  0  0
 33 34  1  0  0  0  0
 36 37  1  0  0  0  0
 36 38  2  0  0  0  0
 37 39  2  0  0  0  0
 38 40  1  0  0  0  0
 39 41  1  0  0  0  0
 40 41  2  0  0  0  0
 35 36  1  0  0  0  0
 42 43  1  0  0  0  0
 42 44  2  0  0  0  0
 43 45  2  0  0  0  0
 44 46  1  0  0  0  0
 45 47  1  0  0  0  0
 46 47  2  0  0  0  0
 35 42  1  0  0  0  0
 34 35  1  0  0  0  0
  8 48  1  0  0  0  0
 48 49  1  0  0  0  0
 51 52  1  0  0  0  0
 51 53  2  0  0  0  0
 52 54  2  0  0  0  0
 53 55  1  0  0  0  0
 54 56  1  0  0  0  0
 55 56  2  0  0  0  0
 50 51  1  0  0  0  0
 57 58  1  0  0  0  0
 57 59  2  0  0  0  0
 58 60  2  0  0  0  0
 59 61  1  0  0  0  0
 60 62  1  0  0  0  0
 61 62  2  0  0  0  0
 50 57  1  0  0  0  0
 49 50  1  0  0  0  0
M  END
> <NMREDATA_VERSION>
1.1

> <NMREDATA_LEVEL>
0

> <NMREDATA_SOLVENT>
CD2Cl2

> <NMREDATA_TEMPERATURE>
298

> <NMREDATA_FORMULA>
C52H51ClO4P4Rh

> <NMREDATA_SMILES>
c1ccc(cc1)P(c1ccccc1)([Rh]P(c1ccccc1)(c1ccccc1)CCP(c1ccccc1)c1ccccc1)CCP(c1ccccc1)c1ccccc1.O[Cl](=O)(=O)=O

> <NMREDATA_ASSIGNMENT>
Rh6, -1167.00, 6

> <NMREDATA_1D_103Rh>
-1167.00, L=Rh6

$$$$
