
  ACD/LABS03252416042D

 41 45  0  0  0  0  0  0  0  0  1 V2000
    9.5607   -9.4350    0.0000 N    0  0  0  0  0  0  0  0  0  0  0  0
   10.8907   -9.4350    0.0000 C    0  0  0  0  0  0  0  0  0  0  0  0
    8.8957  -10.5868    0.0000 C    0  0  0  0  0  0  0  0  0  0  0  0
   11.5557  -10.5868    0.0000 C    0  0  0  0  0  0  0  0  0  0  0  0
    9.5607  -11.7386    0.0000 C    0  0  0  0  0  0  0  0  0  0  0  0
   10.8907  -11.7386    0.0000 C    0  0  0  0  0  0  0  0  0  0  0  0
   11.5557   -8.2832    0.0000 C    0  0  0  0  0  0  0  0  0  0  0  0
   10.8907   -7.1314    0.0000 C    0  0  0  0  0  0  0  0  0  0  0  0
   12.8857   -8.2832    0.0000 C    0  0  0  0  0  0  0  0  0  0  0  0
   11.5557   -5.9795    0.0000 C    0  0  0  0  0  0  0  0  0  0  0  0
   13.5507   -7.1313    0.0000 N    0  0  0  0  0  0  0  0  0  0  0  0
   12.8857   -5.9795    0.0000 C    0  0  0  0  0  0  0  0  0  0  0  0
   12.8857  -10.5868    0.0000 C    0  0  0  0  0  0  0  0  0  0  0  0
   13.5507   -9.4350    0.0000 C    0  0  0  0  0  0  0  0  0  0  0  0
   13.5507  -11.7386    0.0000 C    0  0  0  0  0  0  0  0  0  0  0  0
   14.8807   -9.4350    0.0000 C    0  0  0  0  0  0  0  0  0  0  0  0
   14.8807  -11.7386    0.0000 N    0  0  0  0  0  0  0  0  0  0  0  0
   15.5457  -10.5868    0.0000 C    0  0  0  0  0  0  0  0  0  0  0  0
   11.5557  -12.8904    0.0000 C    0  0  0  0  0  0  0  0  0  0  0  0
   12.8857  -12.8904    0.0000 C    0  0  0  0  0  0  0  0  0  0  0  0
   10.8907  -14.0422    0.0000 C    0  0  0  0  0  0  0  0  0  0  0  0
   13.5507  -14.0422    0.0000 C    0  0  0  0  0  0  0  0  0  0  0  0
   11.5557  -15.1940    0.0000 C    0  0  0  0  0  0  0  0  0  0  0  0
   12.8857  -15.1940    0.0000 C    0  0  0  0  0  0  0  0  0  0  0  0
   13.5507  -16.3459    0.0000 C    0  0  0  0  0  0  0  0  0  0  0  0
   12.3989  -17.0109    0.0000 C    0  0  0  0  0  0  0  0  0  0  0  0
   14.7025  -15.6809    0.0000 C    0  0  0  0  0  0  0  0  0  0  0  0
   14.2157  -17.4977    0.0000 C    0  0  0  0  0  0  0  0  0  0  0  0
    6.9007   -7.1313    0.0000 C    0  0  0  0  0  0  0  0  0  0  0  0
    7.5657   -8.2832    0.0000 C    0  0  0  0  0  0  0  0  0  0  0  0
    5.5707   -7.1313    0.0000 C    0  0  0  0  0  0  0  0  0  0  0  0
    6.9007   -9.4350    0.0000 C    0  0  0  0  0  0  0  0  0  0  0  0
    4.9057   -8.2832    0.0000 C    0  0  0  0  0  0  0  0  0  0  0  0
    5.5707   -9.4350    0.0000 C    0  0  0  0  0  0  0  0  0  0  0  0
    8.8957   -8.2832    0.0000 Rh   0  0  0  0  0  0  0  0  0  0  0  0
    9.5607   -7.1313    0.0000 Br   0  0  0  0  0  0  0  0  0  0  0  0
    7.5657   -5.9795    0.0000 C    0  0  0  0  0  0  0  0  0  0  0  0
    6.9007   -4.8277    0.0000 N    0  0  0  0  0  0  0  0  0  0  0  0
    7.5657   -3.6759    0.0000 C    0  0  0  0  0  0  0  0  0  0  0  0
    6.9007   -2.5241    0.0000 C    0  0  0  0  0  0  0  0  0  0  0  0
    8.8957   -3.6759    0.0000 C    0  0  0  0  0  0  0  0  0  0  0  0
  1  2  1  0  0  0  0
  1  3  2  0  0  0  0
  2  4  2  0  0  0  0
  3  5  1  0  0  0  0
  4  6  1  0  0  0  0
  5  6  2  0  0  0  0
  7  8  1  0  0  0  0
  7  9  2  0  0  0  0
  8 10  2  0  0  0  0
  9 11  1  0  0  0  0
 10 12  1  0  0  0  0
 11 12  2  0  0  0  0
  2  7  1  0  0  0  0
 13 14  1  0  0  0  0
 13 15  2  0  0  0  0
 14 16  2  0  0  0  0
 15 17  1  0  0  0  0
 16 18  1  0  0  0  0
 17 18  2  0  0  0  0
  4 13  1  0  0  0  0
 19 20  1  0  0  0  0
 19 21  2  0  0  0  0
 20 22  2  0  0  0  0
 21 23  1  0  0  0  0
 22 24  1  0  0  0  0
 23 24  2  0  0  0  0
  6 19  1  0  0  0  0
 25 26  1  0  0  0  0
 25 27  1  0  0  0  0
 25 28  1  0  0  0  0
 24 25  1  0  0  0  0
 29 30  1  0  0  0  0
 29 31  2  0  0  0  0
 30 32  2  0  0  0  0
 31 33  1  0  0  0  0
 32 34  1  0  0  0  0
 33 34  2  0  0  0  0
 35 36  1  0  0  0  0
 30 35  1  0  0  0  0
 29 37  1  0  0  0  0
 37 38  2  0  0  0  0
 39 40  1  0  0  0  0
 39 41  1  0  0  0  0
 38 39  1  0  0  0  0
  1 35  1  0  0  0  0
M  END
> <NMREDATA_VERSION>
1.1

> <NMREDATA_LEVEL>
0

> <NMREDATA_SOLVENT>
CD2Cl2

> <NMREDATA_TEMPERATURE>
298

> <NMREDATA_FORMULA>
C35H36BrN4Rh

> <NMREDATA_SMILES>
CC(/N=C/c1ccccc1[Rh](N1=CC=C(C(=C1c1cccnc1)c1cccnc1)c1ccc(cc1)C(C)(C)C)Br)C

> <NMREDATA_ASSIGNMENT>
Rh35, 3221.00, 35

> <NMREDATA_1D_103Rh>
3221.00, L=Rh35

$$$$
