
  ACD/LABS04022410112D

 44 46  0  0  0  0  0  0  0  0  2 V2000
   16.9944  -13.3139    0.0000 Rh   0  3  0  0  0  0  0  0  0  0  0  0
   16.9944  -11.3269    0.0000 Cl   0  0  0  0  0  0  0  0  0  0  0  0
   18.7152  -14.3073    0.0000 Cl   0  0  0  0  0  0  0  0  0  0  0  0
   15.2736  -14.3073    0.0000 P    0  0  0  0  0  0  0  0  0  0  0  0
   14.2801  -12.5866    0.0000 C    0  0  0  0  0  0  0  0  0  0  0  0
   12.2932  -12.5866    0.0000 C    0  0  0  0  0  0  0  0  0  0  0  0
   15.2736  -10.8658    0.0000 C    0  0  0  0  0  0  0  0  0  0  0  0
   11.2997  -10.8658    0.0000 C    0  0  0  0  0  0  0  0  0  0  0  0
   14.2801   -9.1450    0.0000 C    0  0  0  0  0  0  0  0  0  0  0  0
   12.2932   -9.1450    0.0000 C    0  0  0  0  0  0  0  0  0  0  0  0
   13.5529  -15.3008    0.0000 C    0  0  0  0  0  0  0  0  0  0  0  0
   13.5529  -17.2878    0.0000 C    0  0  0  0  0  0  0  0  0  0  0  0
   11.8321  -14.3073    0.0000 C    0  0  0  0  0  0  0  0  0  0  0  0
   11.8321  -18.2813    0.0000 C    0  0  0  0  0  0  0  0  0  0  0  0
   10.1113  -15.3008    0.0000 C    0  0  0  0  0  0  0  0  0  0  0  0
   10.1113  -17.2878    0.0000 C    0  0  0  0  0  0  0  0  0  0  0  0
   16.2671  -16.0281    0.0000 C    0  0  0  0  0  0  0  0  0  0  0  0
   18.2541  -16.0281    0.0000 C    0  0  0  0  0  0  0  0  0  0  0  0
   19.2476  -17.7489    0.0000 S    0  0  0  0  0  0  0  0  0  0  0  0
   21.2346  -17.7489    0.0000 C    0  0  0  0  0  0  0  0  0  0  0  0
   22.2281  -19.4697    0.0000 C    0  0  0  0  0  0  0  0  0  0  0  0
   24.2151  -19.4697    0.0000 S    0  0  0  0  0  0  0  0  0  0  0  0
   25.2086  -21.1905    0.0000 C    0  0  0  0  0  0  0  0  0  0  0  0
   27.1956  -21.1905    0.0000 C    0  0  0  0  0  0  0  0  0  0  0  0
   28.1891  -22.9113    0.0000 P    0  0  0  0  0  0  0  0  0  0  0  0
   27.1956  -24.6320    0.0000 C    0  0  0  0  0  0  0  0  0  0  0  0
   28.1891  -26.3528    0.0000 C    0  0  0  0  0  0  0  0  0  0  0  0
   25.2086  -24.6320    0.0000 C    0  0  0  0  0  0  0  0  0  0  0  0
   27.1956  -28.0736    0.0000 C    0  0  0  0  0  0  0  0  0  0  0  0
   24.2151  -26.3528    0.0000 C    0  0  0  0  0  0  0  0  0  0  0  0
   25.2086  -28.0736    0.0000 C    0  0  0  0  0  0  0  0  0  0  0  0
   30.1761  -22.9113    0.0000 C    0  0  0  0  0  0  0  0  0  0  0  0
   31.1696  -21.1905    0.0000 C    0  0  0  0  0  0  0  0  0  0  0  0
   31.1696  -24.6320    0.0000 C    0  0  0  0  0  0  0  0  0  0  0  0
   33.1565  -21.1905    0.0000 C    0  0  0  0  0  0  0  0  0  0  0  0
   33.1565  -24.6320    0.0000 C    0  0  0  0  0  0  0  0  0  0  0  0
   34.1500  -22.9113    0.0000 C    0  0  0  0  0  0  0  0  0  0  0  0
   26.1674  -13.7407    0.0000 P    0  5  0  0  0  0  0  0  0  0  0  0
   25.3822  -12.3807    0.0000 F    0  0  0  0  0  0  0  0  0  0  0  0
   26.9525  -12.3807    0.0000 F    0  0  0  0  0  0  0  0  0  0  0  0
   27.7377  -13.7407    0.0000 F    0  0  0  0  0  0  0  0  0  0  0  0
   25.3822  -15.1006    0.0000 F    0  0  0  0  0  0  0  0  0  0  0  0
   24.5970  -13.7407    0.0000 F    0  0  0  0  0  0  0  0  0  0  0  0
   26.9525  -15.1006    0.0000 F    0  0  0  0  0  0  0  0  0  0  0  0
  1  2  1  0  0  0  0
  1  3  1  0  0  0  0
  1  4  1  0  0  0  0
  5  6  1  0  0  0  0
  5  7  2  0  0  0  0
  6  8  2  0  0  0  0
  7  9  1  0  0  0  0
  8 10  1  0  0  0  0
  9 10  2  0  0  0  0
  4  5  1  0  0  0  0
 11 12  1  0  0  0  0
 11 13  2  0  0  0  0
 12 14  2  0  0  0  0
 13 15  1  0  0  0  0
 14 16  1  0  0  0  0
 15 16  2  0  0  0  0
  4 11  1  0  0  0  0
  4 17  1  0  0  0  0
 17 18  1  0  0  0  0
 18 19  1  0  0  0  0
 19 20  1  0  0  0  0
 20 21  1  0  0  0  0
 21 22  1  0  0  0  0
 22 23  1  0  0  0  0
 23 24  1  0  0  0  0
 24 25  1  0  0  0  0
 26 27  1  0  0  0  0
 26 28  2  0  0  0  0
 27 29  2  0  0  0  0
 28 30  1  0  0  0  0
 29 31  1  0  0  0  0
 30 31  2  0  0  0  0
 25 26  1  0  0  0  0
 32 33  1  0  0  0  0
 32 34  2  0  0  0  0
 33 35  2  0  0  0  0
 34 36  1  0  0  0  0
 35 37  1  0  0  0  0
 36 37  2  0  0  0  0
 25 32  1  0  0  0  0
 38 39  1  0  0  0  0
 38 40  1  0  0  0  0
 38 41  1  0  0  0  0
 38 42  1  0  0  0  0
 38 43  1  0  0  0  0
 38 44  1  0  0  0  0
M  END
> <NMREDATA_VERSION>
1.1

> <NMREDATA_LEVEL>
0

> <NMREDATA_SOLVENT>
CD3CN

> <NMREDATA_TEMPERATURE>
300

> <NMREDATA_FORMULA>
C30H33Cl2F6P3RhS2

> <NMREDATA_SMILES>
F[P](F)(F)(F)(F)F.Cl[Rh](P(c1ccccc1)(c1ccccc1)CCSCCSCCP(c1ccccc1)c1ccccc1)Cl

> <NMREDATA_ASSIGNMENT>
Rh1, 1405.00, 1

> <NMREDATA_1D_103Rh>
1405.00, L=Rh1

$$$$
