
  ACD/LABS03292412522D

 45 50  0  0  0  0  0  0  0  0  2 V2000
   19.1431  -14.9945    0.0000 C    0  0  0  0  0  0  0  0  0  0  0  0
   17.8928  -14.5422    0.0000 C    0  0  0  0  0  0  0  0  0  0  0  0
   20.1632  -14.1342    0.0000 C    0  0  0  0  0  0  0  0  0  0  0  0
   17.6626  -13.2296    0.0000 C    0  0  0  0  0  0  0  0  0  0  0  0
   19.9236  -12.8216    0.0000 C    0  0  0  0  0  0  0  0  0  0  0  0
   18.6734  -12.3693    0.0000 C    0  0  0  0  0  0  0  0  0  0  0  0
   24.6051  -20.3583    0.0000 C    0  0  0  0  0  0  0  0  0  0  0  0
   24.3834  -21.6709    0.0000 C    0  0  0  0  0  0  0  0  0  0  0  0
   23.5854  -19.5075    0.0000 C    0  0  0  0  0  0  0  0  0  0  0  0
   23.1331  -22.1232    0.0000 C    0  0  0  0  0  0  0  0  0  0  0  0
   22.3351  -19.9593    0.0000 C    0  0  0  0  0  0  0  0  0  0  0  0
   22.1134  -21.2719    0.0000 C    0  0  0  0  0  0  0  0  0  0  0  0
   20.9344  -21.3785    0.0000 C    0  0  0  0  0  0  0  0  0  0  0  0
   20.0831  -22.3981    0.0000 C    0  0  0  0  0  0  0  0  0  0  0  0
   20.4736  -20.1282    0.0000 C    0  0  0  0  0  0  0  0  0  0  0  0
   18.7710  -22.1675    0.0000 C    0  0  0  0  0  0  0  0  0  0  0  0
   19.1610  -19.8975    0.0000 C    0  0  0  0  0  0  0  0  0  0  0  0
   18.3097  -20.9262    0.0000 C    0  0  0  0  0  0  0  0  0  0  0  0
   21.3154  -16.8121    0.0000 C    0  0  0  0  0  0  0  0  0  0  0  0
   21.9804  -15.6595    0.0000 C    0  0  0  0  0  0  0  0  0  0  0  0
   21.9804  -17.9554    0.0000 C    0  0  0  0  0  0  0  0  0  0  0  0
   23.3104  -15.6595    0.0000 C    0  0  0  0  0  0  0  0  0  0  0  0
   23.3104  -17.9554    0.0000 C    0  0  0  0  0  0  0  0  0  0  0  0
   23.9754  -16.8121    0.0000 C    0  0  0  0  0  0  0  0  0  0  0  0
   19.1077  -17.2460    0.0000 Rh   0  0  0  0  0  0  0  0  0  0  0  0
   17.8574  -17.7073    0.0000 H    0  0  0  0  0  0  0  0  0  0  0  0
   19.3294  -15.9519    0.0000 H    0  0  0  0  0  0  0  0  0  0  0  0
   21.3154  -19.1080    0.0000 P    0  0  0  0  0  0  0  0  0  0  0  0
   16.8821  -15.4019    0.0000 P    0  0  0  0  0  0  0  0  0  0  0  0
   15.6139  -12.1123    0.0000 C    0  0  0  0  0  0  0  0  0  0  0  0
   16.4741  -13.1320    0.0000 C    0  0  0  0  0  0  0  0  0  0  0  0
   14.3018  -12.3519    0.0000 C    0  0  0  0  0  0  0  0  0  0  0  0
   16.0218  -14.3823    0.0000 C    0  0  0  0  0  0  0  0  0  0  0  0
   13.8495  -13.6022    0.0000 C    0  0  0  0  0  0  0  0  0  0  0  0
   14.7098  -14.6219    0.0000 C    0  0  0  0  0  0  0  0  0  0  0  0
   14.5853  -18.0619    0.0000 C    0  0  0  0  0  0  0  0  0  0  0  0
   15.7384  -17.3880    0.0000 C    0  0  0  0  0  0  0  0  0  0  0  0
   13.4326  -17.4059    0.0000 C    0  0  0  0  0  0  0  0  0  0  0  0
   15.7294  -16.0674    0.0000 C    0  0  0  0  0  0  0  0  0  0  0  0
   13.4236  -16.0849    0.0000 C    0  0  0  0  0  0  0  0  0  0  0  0
   14.5768  -15.4109    0.0000 C    0  0  0  0  0  0  0  0  0  0  0  0
   18.8771  -18.5586    0.0000 O    0  0  0  0  0  0  0  0  0  0  0  0
   17.6276  -19.0142    0.0000 N    0  3  0  0  0  0  0  0  0  0  0  0
   16.6082  -18.1599    0.0000 O    0  5  0  0  0  0  0  0  0  0  0  0
   17.3974  -20.3241    0.0000 O    0  0  0  0  0  0  0  0  0  0  0  0
  1  2  1  0  0  0  0
  1  3  2  0  0  0  0
  2  4  2  0  0  0  0
  3  5  1  0  0  0  0
  4  6  1  0  0  0  0
  5  6  2  0  0  0  0
  7  8  2  0  0  0  0
  7  9  1  0  0  0  0
  8 10  1  0  0  0  0
  9 11  2  0  0  0  0
 10 12  2  0  0  0  0
 11 12  1  0  0  0  0
 13 14  2  0  0  0  0
 13 15  1  0  0  0  0
 14 16  1  0  0  0  0
 15 17  2  0  0  0  0
 16 18  2  0  0  0  0
 17 18  1  0  0  0  0
 19 20  2  0  0  0  0
 19 21  1  0  0  0  0
 20 22  1  0  0  0  0
 21 23  2  0  0  0  0
 22 24  2  0  0  0  0
 23 24  1  0  0  0  0
 25 26  1  0  0  0  0
 25 27  1  0  0  0  0
 25 28  1  0  0  0  0
 21 28  1  0  0  0  0
 15 28  1  0  0  0  0
 11 28  1  0  0  0  0
 25 29  1  0  0  0  0
  2 29  1  0  0  0  0
 30 31  1  0  0  0  0
 30 32  2  0  0  0  0
 31 33  2  0  0  0  0
 32 34  1  0  0  0  0
 33 35  1  0  0  0  0
 34 35  2  0  0  0  0
 29 33  1  0  0  0  0
 36 37  1  0  0  0  0
 36 38  2  0  0  0  0
 37 39  2  0  0  0  0
 38 40  1  0  0  0  0
 39 41  1  0  0  0  0
 40 41  2  0  0  0  0
 29 39  1  0  0  0  0
 25 42  1  0  0  0  0
 43 44  1  0  0  0  0
 43 45  2  0  0  0  0
 42 43  1  0  0  0  0
M  END
> <NMREDATA_VERSION>
1.1

> <NMREDATA_LEVEL>
0

> <NMREDATA_SOLVENT>
THF

> <NMREDATA_TEMPERATURE>
213

> <NMREDATA_FORMULA>
C36H36NO3P2Rh

> <NMREDATA_SMILES>
ON(=O)O[RhH2](P(c1ccccc1)(c1ccccc1)c1ccccc1)P(c1ccccc1)(c1ccccc1)c1ccccc1

> <NMREDATA_ASSIGNMENT>
Rh25, 529.00, 25

> <NMREDATA_1D_103Rh>
529.00, L=Rh25

$$$$
