LaurenceCarlton-2008_00147.mol
  ChemDraw08202411552D

 16 20  0  0  0  0  0  0  0  0999 V2000
    3.6031   -1.6357    0.0000 C    0  0  0  0  0  0  0  0  0  0  0  0
    3.3338   -0.8559    0.0000 C    0  0  0  0  0  0  0  0  0  0  0  0
    3.8745   -0.2327    0.0000 C    0  0  0  0  0  0  0  0  0  0  0  0
    3.6051    0.5471    0.0000 C    0  0  0  0  0  0  0  0  0  0  0  0
    4.1458    1.1702    0.0000 C    0  0  0  0  0  0  0  0  0  0  0  0
    2.7951    0.7038    0.0000 O    0  0  0  0  0  0  0  0  0  0  0  0
    2.5238   -0.6992    0.0000 O    0  0  0  0  0  0  0  0  0  0  0  0
    1.1178    0.3755    0.0000 Rh   0  0  0  0  0  0  0  0  0  0  0  0
   -4.1458    1.0523    0.0000 C    0  0  0  0  0  0  0  0  0  0  0  0
   -4.1458    0.2273    0.0000 C    0  0  0  0  0  0  0  0  0  0  0  0
   -3.5624   -0.3560    0.0000 C    0  0  0  0  0  0  0  0  0  0  0  0
   -2.7374   -0.3560    0.0000 C    0  0  0  0  0  0  0  0  0  0  0  0
   -2.1541    0.2273    0.0000 C    0  0  0  0  0  0  0  0  0  0  0  0
   -2.1541    1.0523    0.0000 C    0  0  0  0  0  0  0  0  0  0  0  0
   -2.7374    1.6357    0.0000 C    0  0  0  0  0  0  0  0  0  0  0  0
   -3.5624    1.6357    0.0000 C    0  0  0  0  0  0  0  0  0  0  0  0
  1  2  1  0  0
  2  3  1  0  0
  3  4  2  0  0
  4  5  1  0  0
  4  6  1  0  0
  2  7  2  0  0
  8  7  1  0  0
  6  8  1  0  0
  9 10  1  0  0
 10 11  2  0  0
 11 12  1  0  0
 12 13  1  0  0
 13 14  1  0  0
 14 15  1  0  0
 15 16  1  0  0
 16  9  2  0  0
 15  8  1  0  0
  8 14  1  0  0
 13  8  1  0  0
  8 12  1  0  0
M  END
> <NMREDATA_VERSION>
1.1

> <NMREDATA_LEVEL>
0

> <NMREDATA_SOLVENT>
CD2Cl2

> <NMREDATA_TEMPERATURE>
300

> <NMREDATA_FORMULA>
C13H15O2Rh

> <NMREDATA_SMILES>
CC1=CC(=[O][Rh]234(O1)C1C4C3C2C=CC=C1)C

> <NMREDATA_ASSIGNMENT>
Rh8, 1760.00, 8

> <NMREDATA_1D_103Rh>
1760.00, L=Rh8

$$$$
