
  ACD/LABS02122411382D

 17 17  0  0  0  0  0  0  0  0  1 V2000
   22.9002   -6.3910    0.0000 C    0  0  0  0  0  0  0  0  0  0  0  0
   21.5807   -6.5695    0.0000 C    0  0  0  0  0  0  0  0  0  0  0  0
   23.9536   -7.2053    0.0000 C    0  0  0  0  0  0  0  0  0  0  0  0
   24.1277   -8.5171    0.0000 C    0  0  0  0  0  0  0  0  0  0  0  0
   20.7741   -7.6185    0.0000 C    0  0  0  0  0  0  0  0  0  0  0  0
   23.3132   -9.5702    0.0000 C    0  0  0  0  0  0  0  0  0  0  0  0
   20.9529   -8.9378    0.0000 C    0  0  0  0  0  0  0  0  0  0  0  0
   22.0016   -9.7446    0.0000 C    0  0  0  0  0  0  0  0  0  0  0  0
   20.9162   -5.4184    0.0000 Rh   0  0  0  0  0  0  0  0  0  0  0  0
   21.5860   -4.2745    0.0000 C    0  0  0  0  0  0  0  0  0  0  0  0
   19.5982   -5.4221    0.0000 P    0  0  0  0  0  5  0  0  0  0  0  0
   19.5976   -6.7319    0.0000 C    0  0  0  0  0  0  0  0  0  0  0  0
   18.4463   -7.3967    0.0000 C    0  0  0  0  0  0  0  0  0  0  0  0
   19.5977   -4.0921    0.0000 C    0  0  0  0  0  0  0  0  0  0  0  0
   18.4462   -3.4267    0.0000 C    0  0  0  0  0  0  0  0  0  0  0  0
   18.2762   -5.4180    0.0000 C    0  0  0  0  0  0  0  0  0  0  0  0
   17.6116   -4.2669    0.0000 C    0  0  0  0  0  0  0  0  0  0  0  0
  1  2  1  0  0  0  0
  1  3  1  0  0  0  0
  2  5  1  0  0  0  0
  3  4  2  0  0  0  0
  4  6  1  0  0  0  0
  5  7  2  0  0  0  0
  6  8  1  0  0  0  0
  7  8  1  0  0  0  0
  9 10  1  0  0  0  0
  2  9  1  0  0  0  0
  9 11  1  0  0  0  0
 11 12  1  0  0  0  0
 12 13  1  0  0  0  0
 11 14  1  0  0  0  0
 14 15  1  0  0  0  0
 11 16  1  0  0  0  0
 16 17  1  0  0  0  0
M  END
> <NMREDATA_VERSION>
1.1

> <NMREDATA_LEVEL>
0

> <NMREDATA_SOLVENT>
C6D6

> <NMREDATA_TEMPERATURE>
298

> <NMREDATA_FORMULA>
C15H30PRh

> <NMREDATA_SMILES>
CCP([Rh](C1C=CCCC=CC1)C)(CC)CC

> <NMREDATA_ASSIGNMENT>
Rh9, 57.00, 9

> <NMREDATA_1D_103Rh>
57.00, L=Rh9

$$$$
