
  ACD/LABS02122411012D

 13 14  0  0  0  0  0  0  0  0  1 V2000
   20.5436  -13.3214    0.0000 Rh   0  0  0  0  0  0  0  0  0  0  0  0
   25.0047  -12.5432    0.0000 C    0  0  0  0  0  0  0  0  0  0  0  0
   25.7135  -10.5976    0.0000 C    0  0  0  0  0  0  0  0  0  0  0  0
   27.7701  -10.2366    0.0000 C    0  0  0  0  0  0  0  0  0  0  0  0
   29.1043  -11.8344    0.0000 C    0  0  0  0  0  0  0  0  0  0  0  0
   26.3389  -14.1417    0.0000 O    0  0  0  0  0  0  0  0  0  0  0  0
   28.4930   -8.2907    0.0000 O    0  0  0  0  0  0  0  0  0  0  0  0
   22.0166  -11.8484    0.0000 C    0  0  0  0  0  0  0  0  0  0  0  0
   23.4756  -13.3214    0.0000 C    0  0  0  0  0  0  0  0  0  0  0  0
   22.0166  -14.7947    0.0000 C    0  0  0  0  0  0  0  0  0  0  0  0
   19.0702  -14.7947    0.0000 C    0  0  0  0  0  0  0  0  0  0  0  0
   17.5972  -13.3214    0.0000 C    0  0  0  0  0  0  0  0  0  0  0  0
   19.0702  -11.8484    0.0000 C    0  0  0  0  0  0  0  0  0  0  0  0
  1  2  1  0  0  0  0
  2  3  1  0  0  0  0
  3  4  1  0  0  0  0
  4  5  1  0  0  0  0
  2  6  2  0  0  0  0
  4  7  2  0  0  0  0
  8  9  1  0  0  0  0
  1  8  1  0  0  0  0
  9 10  1  0  0  0  0
 10  1  1  0  0  0  0
  1 11  1  0  0  0  0
 11 12  1  0  0  0  0
 12 13  1  0  0  0  0
 13  1  1  0  0  0  0
M  END
> <NMREDATA_VERSION>
1.1

> <NMREDATA_LEVEL>
0

> <NMREDATA_SOLVENT>
DCCl3

> <NMREDATA_TEMPERATURE>
270

> <NMREDATA_FORMULA>
C10H17O2Rh

> <NMREDATA_SMILES>
O=C([Rh]12(CCC1)CCC2)CC(=O)C

> <NMREDATA_ASSIGNMENT>
Rh1, 1315.00, 1

> <NMREDATA_1D_103Rh>
1315.00, L=Rh1

$$$$
