
  ACD/LABS03112411222D

 42 47  0  0  0  0  0  0  0  0  1 V2000
   17.5605  -10.7442    0.0000 C    0  0  0  0  0  0  0  0  0  0  0  0
   17.5605  -12.0742    0.0000 C    0  0  0  0  0  0  0  0  0  0  0  0
   16.4086  -10.0792    0.0000 C    0  0  0  0  0  0  0  0  0  0  0  0
   16.4086  -12.7392    0.0000 C    0  0  0  0  0  0  0  0  0  0  0  0
   15.2568  -10.7442    0.0000 C    0  0  0  0  0  0  0  0  0  0  0  0
   15.2568  -12.0742    0.0000 C    0  0  0  0  0  0  0  0  0  0  0  0
   20.1885  -12.9074    0.0000 C    0  0  0  0  0  0  0  0  0  0  0  0
   20.1885  -14.2374    0.0000 C    0  0  0  0  0  0  0  0  0  0  0  0
   19.0366  -12.2424    0.0000 C    0  0  0  0  0  0  0  0  0  0  0  0
   19.0366  -14.9024    0.0000 C    0  0  0  0  0  0  0  0  0  0  0  0
   17.8848  -12.9074    0.0000 C    0  0  0  0  0  0  0  0  0  0  0  0
   17.8848  -14.2374    0.0000 C    0  0  0  0  0  0  0  0  0  0  0  0
   18.7623  -15.8398    0.0000 C    0  0  0  0  0  0  0  0  0  0  0  0
   18.7623  -17.1698    0.0000 C    0  0  0  0  0  0  0  0  0  0  0  0
   17.6104  -15.1748    0.0000 C    0  0  0  0  0  0  0  0  0  0  0  0
   17.6104  -17.8348    0.0000 C    0  0  0  0  0  0  0  0  0  0  0  0
   16.4586  -15.8398    0.0000 C    0  0  0  0  0  0  0  0  0  0  0  0
   16.4586  -17.1698    0.0000 C    0  0  0  0  0  0  0  0  0  0  0  0
   12.5450  -18.5960    0.0000 C    0  0  0  0  0  0  0  0  0  0  0  0
   12.5450  -19.9260    0.0000 C    0  0  0  0  0  0  0  0  0  0  0  0
   11.3931  -17.9310    0.0000 C    0  0  0  0  0  0  0  0  0  0  0  0
   11.3931  -20.5910    0.0000 C    0  0  0  0  0  0  0  0  0  0  0  0
   10.2413  -18.5960    0.0000 C    0  0  0  0  0  0  0  0  0  0  0  0
   10.2413  -19.9260    0.0000 C    0  0  0  0  0  0  0  0  0  0  0  0
    9.4363  -18.0832    0.0000 C    0  0  0  0  0  0  0  0  0  0  0  0
    9.4363  -19.4132    0.0000 C    0  0  0  0  0  0  0  0  0  0  0  0
    8.2844  -17.4182    0.0000 C    0  0  0  0  0  0  0  0  0  0  0  0
    8.2844  -20.0782    0.0000 C    0  0  0  0  0  0  0  0  0  0  0  0
    7.1326  -18.0832    0.0000 C    0  0  0  0  0  0  0  0  0  0  0  0
    7.1326  -19.4132    0.0000 C    0  0  0  0  0  0  0  0  0  0  0  0
    7.7698  -15.8078    0.0000 C    0  0  0  0  0  0  0  0  0  0  0  0
    7.7698  -17.1378    0.0000 C    0  0  0  0  0  0  0  0  0  0  0  0
    6.6179  -15.1428    0.0000 C    0  0  0  0  0  0  0  0  0  0  0  0
    6.6179  -17.8028    0.0000 C    0  0  0  0  0  0  0  0  0  0  0  0
    5.4661  -15.8078    0.0000 C    0  0  0  0  0  0  0  0  0  0  0  0
    5.4661  -17.1378    0.0000 C    0  0  0  0  0  0  0  0  0  0  0  0
   12.5469  -15.6075    0.0000 Rh   0  0  0  0  0  0  0  0  0  0  0  0
   14.6140  -14.7261    0.0000 P    0  0  0  0  0  0  0  0  0  0  0  0
   10.7041  -16.5849    0.0000 P    0  0  0  0  0  0  0  0  0  0  0  0
   11.5534  -14.2615    0.0000 F    0  0  0  0  0  0  0  0  0  0  0  0
   13.6045  -17.0496    0.0000 C    0  0  0  0  0  0  0  0  0  0  0  0
   15.0627  -18.4758    0.0000 O    0  0  0  0  0  0  0  0  0  0  0  0
  1  2  1  0  0  0  0
  1  3  2  0  0  0  0
  2  4  2  0  0  0  0
  3  5  1  0  0  0  0
  4  6  1  0  0  0  0
  5  6  2  0  0  0  0
  7  8  1  0  0  0  0
  7  9  2  0  0  0  0
  8 10  2  0  0  0  0
  9 11  1  0  0  0  0
 10 12  1  0  0  0  0
 11 12  2  0  0  0  0
 13 14  1  0  0  0  0
 13 15  2  0  0  0  0
 14 16  2  0  0  0  0
 15 17  1  0  0  0  0
 16 18  1  0  0  0  0
 17 18  2  0  0  0  0
 19 20  1  0  0  0  0
 19 21  2  0  0  0  0
 20 22  2  0  0  0  0
 21 23  1  0  0  0  0
 22 24  1  0  0  0  0
 23 24  2  0  0  0  0
 25 26  1  0  0  0  0
 25 27  2  0  0  0  0
 26 28  2  0  0  0  0
 27 29  1  0  0  0  0
 28 30  1  0  0  0  0
 29 30  2  0  0  0  0
 31 32  1  0  0  0  0
 31 33  2  0  0  0  0
 32 34  2  0  0  0  0
 33 35  1  0  0  0  0
 34 36  1  0  0  0  0
 35 36  2  0  0  0  0
 37 38  1  0  0  0  0
 37 39  1  0  0  0  0
 31 39  1  0  0  0  0
 25 39  1  0  0  0  0
 21 39  1  0  0  0  0
 17 38  1  0  0  0  0
 11 38  1  0  0  0  0
  4 38  1  0  0  0  0
 37 40  1  0  0  0  0
 37 41  1  0  0  0  0
 41 42  3  0  0  0  0
M  END
> <NMREDATA_VERSION>
1.1

> <NMREDATA_LEVEL>
0

> <NMREDATA_SOLVENT>
DCCl3

> <NMREDATA_TEMPERATURE>
241

> <NMREDATA_FORMULA>
C37H32FOP2Rh

> <NMREDATA_SMILES>
[O]#C[Rh](P(c1ccccc1)(c1ccccc1)c1ccccc1)(P(c1ccccc1)(c1ccccc1)c1ccccc1)F

> <NMREDATA_ASSIGNMENT>
Rh37, -148.00, 37

> <NMREDATA_1D_103Rh>
-148.00, L=Rh37

$$$$
