
  ACD/LABS02232410232D

 17 17  0  0  0  0  0  0  0  0  2 V2000
   17.0429   -7.9866    0.0000 C    0  0  0  0  0  0  0  0  0  0  0  0
   15.8078   -7.2735    0.0000 C    0  0  0  0  0  0  0  0  0  0  0  0
   15.3201   -5.9334    0.0000 C    0  0  0  0  0  0  0  0  0  0  0  0
   15.8078   -4.5933    0.0000 C    0  0  0  0  0  0  0  0  0  0  0  0
   17.0429   -3.8802    0.0000 C    0  0  0  0  0  0  0  0  0  0  0  0
   18.4474   -4.1278    0.0000 C    0  0  0  0  0  0  0  0  0  0  0  0
   19.3641   -5.2203    0.0000 C    0  0  0  0  0  0  0  0  0  0  0  0
   19.3641   -6.6465    0.0000 C    0  0  0  0  0  0  0  0  0  0  0  0
   18.4474   -7.7390    0.0000 C    0  0  0  0  0  0  0  0  0  0  0  0
   13.8939   -5.9334    0.0000 Rh   0  0  0  0  0  0  0  0  0  0  0  0
   13.1808   -4.6983    0.0000 C    0  0  0  0  0  0  0  0  0  0  0  0
   13.1808   -7.1685    0.0000 C    0  0  0  0  0  0  0  0  0  0  0  0
   12.4678   -3.4633    0.0000 O    0  0  0  0  0  0  0  0  0  0  0  0
   12.4678   -8.4036    0.0000 O    0  0  0  0  0  0  0  0  0  0  0  0
   20.7042   -7.1343    0.0000 N    0  3  0  0  0  0  0  0  0  0  0  0
   20.9519   -8.5387    0.0000 O    0  5  0  0  0  0  0  0  0  0  0  0
   21.7967   -6.2176    0.0000 O    0  0  0  0  0  0  0  0  0  0  0  0
  1  2  2  0  0  0  0
  2  3  2  0  0  0  0
  3  4  1  0  0  0  0
  4  5  2  0  0  0  0
  5  6  1  0  0  0  0
  6  7  2  0  0  0  0
  7  8  1  0  0  0  0
  8  9  2  0  0  0  0
  9  1  1  0  0  0  0
  3 10  1  0  0  0  0
 10 11  1  0  0  0  0
 10 12  1  0  0  0  0
 11 13  3  0  0  0  0
 12 14  3  0  0  0  0
 15 16  1  0  0  0  0
 15 17  2  0  0  0  0
  8 15  1  0  0  0  0
M  END
> <NMREDATA_VERSION>
1.1

> <NMREDATA_LEVEL>
0

> <NMREDATA_SOLVENT>
C6D6

> <NMREDATA_TEMPERATURE>
303

> <NMREDATA_FORMULA>
C11H8NO4Rh

> <NMREDATA_SMILES>
[O]#C[Rh](C1=C=C/C=C(\C=C/C=C\1)/N(=O)O)C#[O]

> <NMREDATA_ASSIGNMENT>
Rh10, -987.00, 10

> <NMREDATA_1D_103Rh>
-987.00, L=Rh10

$$$$
