
  ACD/LABS02122412002D

 58 63  0  0  0  0  0  0  0  0  2 V2000
    7.8542   -9.3408    0.0000 C    0  0  0  0  0  0  0  0  0  0  0  0
    6.5311   -9.3451    0.0000 C    0  0  0  0  0  0  0  0  0  0  0  0
    8.5198  -10.4933    0.0000 C    0  0  0  0  0  0  0  0  0  0  0  0
    5.8661  -10.4969    0.0000 C    0  0  0  0  0  0  0  0  0  0  0  0
    7.8548  -11.6451    0.0000 C    0  0  0  0  0  0  0  0  0  0  0  0
    6.5239  -11.6448    0.0000 C    0  0  0  0  0  0  0  0  0  0  0  0
   10.5098  -16.2494    0.0000 C    0  0  0  0  0  0  0  0  0  0  0  0
   11.1748  -15.0976    0.0000 C    0  0  0  0  0  0  0  0  0  0  0  0
    9.1789  -16.2492    0.0000 C    0  0  0  0  0  0  0  0  0  0  0  0
   10.5089  -13.9455    0.0000 C    0  0  0  0  0  0  0  0  0  0  0  0
    8.5132  -15.0967    0.0000 C    0  0  0  0  0  0  0  0  0  0  0  0
    9.1782  -13.9449    0.0000 C    0  0  0  0  0  0  0  0  0  0  0  0
   11.0265  -11.3468    0.0000 Rh   0  3  0  0  0  0  0  0  0  0  0  0
   11.0222  -10.0237    0.0000 C    0  0  0  0  0  0  0  0  0  0  0  0
   12.1747   -9.3580    0.0000 S    0  0  0  0  0  0  0  0  0  0  0  0
   13.3265  -10.0230    0.0000 O    0  0  0  0  0  0  0  0  0  0  0  0
   12.1750   -8.0271    0.0000 C    0  0  0  0  0  0  0  0  0  0  0  0
   11.0232   -7.3621    0.0000 C    0  0  0  0  0  0  0  0  0  0  0  0
   13.3274   -7.3614    0.0000 C    0  0  0  0  0  0  0  0  0  0  0  0
   11.0316   -6.0360    0.0000 C    0  0  0  0  0  0  0  0  0  0  0  0
   13.3277   -6.0305    0.0000 C    0  0  0  0  0  0  0  0  0  0  0  0
   12.1759   -5.3655    0.0000 C    0  0  0  0  0  0  0  0  0  0  0  0
   12.1844   -4.0394    0.0000 C    0  0  0  0  0  0  0  0  0  0  0  0
    8.5123  -12.7928    0.0000 P    0  0  0  0  0  0  0  0  0  0  0  0
    7.3602  -13.4587    0.0000 C    0  0  0  0  0  0  0  0  0  0  0  0
    6.2162  -12.7982    0.0000 C    0  0  0  0  0  0  0  0  0  0  0  0
    7.3596  -14.7894    0.0000 C    0  0  0  0  0  0  0  0  0  0  0  0
    5.0642  -13.4641    0.0000 C    0  0  0  0  0  0  0  0  0  0  0  0
    6.2075  -15.4553    0.0000 C    0  0  0  0  0  0  0  0  0  0  0  0
    5.0635  -14.7948    0.0000 C    0  0  0  0  0  0  0  0  0  0  0  0
    6.2187   -8.3250    0.0000 P    0  0  0  0  0  0  0  0  0  0  0  0
    7.3664   -7.6676    0.0000 C    0  0  0  0  0  0  0  0  0  0  0  0
    8.5182   -8.3326    0.0000 C    0  0  0  0  0  0  0  0  0  0  0  0
    7.3624   -6.3441    0.0000 C    0  0  0  0  0  0  0  0  0  0  0  0
    9.6660   -7.6741    0.0000 C    0  0  0  0  0  0  0  0  0  0  0  0
    8.5149   -5.6784    0.0000 C    0  0  0  0  0  0  0  0  0  0  0  0
    9.6667   -6.3434    0.0000 C    0  0  0  0  0  0  0  0  0  0  0  0
    5.0669   -7.6600    0.0000 C    0  0  0  0  0  0  0  0  0  0  0  0
    3.9144   -8.3257    0.0000 C    0  0  0  0  0  0  0  0  0  0  0  0
    5.0624   -6.3374    0.0000 C    0  0  0  0  0  0  0  0  0  0  0  0
    2.7626   -7.6607    0.0000 C    0  0  0  0  0  0  0  0  0  0  0  0
    3.9106   -5.6724    0.0000 C    0  0  0  0  0  0  0  0  0  0  0  0
    2.7633   -6.3300    0.0000 C    0  0  0  0  0  0  0  0  0  0  0  0
   12.1783  -12.0118    0.0000 C    0  0  0  0  0  0  0  0  0  0  0  0
   12.0043  -13.3244    0.0000 C    0  0  0  0  0  0  0  0  0  0  0  0
   13.2278  -11.2052    0.0000 C    0  0  0  0  0  0  0  0  0  0  0  0
   14.5478  -11.3835    0.0000 C    0  0  0  0  0  0  0  0  0  0  0  0
   12.8144  -14.3858    0.0000 C    0  0  0  0  0  0  0  0  0  0  0  0
   15.3548  -12.4332    0.0000 C    0  0  0  0  0  0  0  0  0  0  0  0
   14.1313  -14.5524    0.0000 C    0  0  0  0  0  0  0  0  0  0  0  0
   15.1885  -13.7497    0.0000 C    0  0  0  0  0  0  0  0  0  0  0  0
   26.4798  -14.3496    0.0000 P    0  5  0  0  0  0  0  0  0  0  0  0
   24.9495  -11.6990    0.0000 F    0  0  0  0  0  0  0  0  0  0  0  0
   28.0101  -11.6990    0.0000 F    0  0  0  0  0  0  0  0  0  0  0  0
   29.5404  -14.3496    0.0000 F    0  0  0  0  0  0  0  0  0  0  0  0
   24.9495  -17.0001    0.0000 F    0  0  0  0  0  0  0  0  0  0  0  0
   23.4192  -14.3496    0.0000 F    0  0  0  0  0  0  0  0  0  0  0  0
   28.0101  -17.0001    0.0000 F    0  0  0  0  0  0  0  0  0  0  0  0
  1  2  1  0  0  0  0
  1  3  2  0  0  0  0
  2  4  2  0  0  0  0
  3  5  1  0  0  0  0
  4  6  1  0  0  0  0
  5  6  2  0  0  0  0
  7  8  1  0  0  0  0
  7  9  2  0  0  0  0
  8 10  2  0  0  0  0
  9 11  1  0  0  0  0
 10 12  1  0  0  0  0
 11 12  2  0  0  0  0
 13 14  1  0  0  0  0
 14 15  1  0  0  0  0
 15 16  2  0  0  0  0
 17 18  1  0  0  0  0
 17 19  2  0  0  0  0
 18 20  2  0  0  0  0
 19 21  1  0  0  0  0
 20 22  1  0  0  0  0
 21 22  2  0  0  0  0
 15 17  1  0  0  0  0
 22 23  1  0  0  0  0
 13 24  1  0  0  0  0
 12 24  1  0  0  0  0
  5 24  1  0  0  0  0
 25 26  1  0  0  0  0
 25 27  2  0  0  0  0
 26 28  2  0  0  0  0
 27 29  1  0  0  0  0
 28 30  1  0  0  0  0
 29 30  2  0  0  0  0
 24 25  1  0  0  0  0
 26 31  1  0  0  0  0
 32 33  1  0  0  0  0
 32 34  2  0  0  0  0
 33 35  2  0  0  0  0
 34 36  1  0  0  0  0
 35 37  1  0  0  0  0
 36 37  2  0  0  0  0
 31 32  1  0  0  0  0
 38 39  1  0  0  0  0
 38 40  2  0  0  0  0
 39 41  2  0  0  0  0
 40 42  1  0  0  0  0
 41 43  1  0  0  0  0
 42 43  2  0  0  0  0
 31 38  1  0  0  0  0
 44 45  1  0  0  0  0
 44 46  1  0  0  0  0
 45 48  2  0  0  0  0
 46 47  1  0  0  0  0
 47 49  2  0  0  0  0
 48 50  1  0  0  0  0
 49 51  1  0  0  0  0
 50 51  1  0  0  0  0
 13 44  1  0  0  0  0
 52 53  1  0  0  0  0
 52 54  1  0  0  0  0
 52 55  1  0  0  0  0
 52 56  1  0  0  0  0
 52 57  1  0  0  0  0
 52 58  1  0  0  0  0
M  END
> <NMREDATA_VERSION>
1.1

> <NMREDATA_LEVEL>
0

> <NMREDATA_SOLVENT>
DCCl3

> <NMREDATA_FORMULA>
C46H45F6OP3RhS

> <NMREDATA_SMILES>
F[P](F)(F)(F)(F)F.Cc1ccc(cc1)S(=O)C[Rh](P(c1ccccc1P(c1ccccc1)c1ccccc1)(c1ccccc1)c1ccccc1)C1C=CCCC=CC1

> <NMREDATA_ASSIGNMENT>
Rh13, 261.00, 13

> <NMREDATA_1D_103Rh>
261.00, L=Rh13

$$$$
