
  ACD/LABS03152413252D

 62 68  0  0  0  0  0  0  0  0  2 V2000
   27.8980   -7.7156    0.0000 Cl   0  0  0  0  0  0  0  0  0  0  0  0
   28.6351   -6.4389    0.0000 O    0  0  0  0  0  0  0  0  0  0  0  0
   26.6213   -6.9785    0.0000 O    0  0  0  0  0  0  0  0  0  0  0  0
   29.1747   -8.4527    0.0000 O    0  0  0  0  0  0  0  0  0  0  0  0
   27.1609   -8.9923    0.0000 O    0  5  0  0  0  0  0  0  0  0  0  0
   13.7477  -10.5188    0.0000 Rh   0  3  0  0  0  0  0  0  0  0  0  0
   11.1606  -12.5613    0.0000 C    0  0  0  0  0  0  0  0  0  0  0  0
   11.8159  -11.4406    0.0000 C    0  0  0  0  0  0  0  0  0  0  0  0
   10.9778  -14.0273    0.0000 As   0  0  0  0  0  0  0  0  0  0  0  0
   12.3909  -14.7970    0.0000 C    0  0  0  0  0  0  0  0  0  0  0  0
   13.0096  -15.9762    0.0000 C    0  0  0  0  0  0  0  0  0  0  0  0
   13.6985  -14.0421    0.0000 C    0  0  0  0  0  0  0  0  0  0  0  0
   14.0051  -17.0047    0.0000 C    0  0  0  0  0  0  0  0  0  0  0  0
   14.7954  -14.8889    0.0000 C    0  0  0  0  0  0  0  0  0  0  0  0
   15.2659  -16.2462    0.0000 C    0  0  0  0  0  0  0  0  0  0  0  0
    9.7781  -15.2401    0.0000 C    0  0  0  0  0  0  0  0  0  0  0  0
    9.3391  -16.5385    0.0000 C    0  0  0  0  0  0  0  0  0  0  0  0
    8.3793  -15.2009    0.0000 C    0  0  0  0  0  0  0  0  0  0  0  0
    8.3457  -17.5348    0.0000 C    0  0  0  0  0  0  0  0  0  0  0  0
    7.0540  -15.5990    0.0000 C    0  0  0  0  0  0  0  0  0  0  0  0
    6.9149  -17.1072    0.0000 C    0  0  0  0  0  0  0  0  0  0  0  0
   12.3387  -10.1472    0.0000 P    0  0  0  0  0  0  0  0  0  0  0  0
   13.8703   -7.9441    0.0000 C    0  0  0  0  0  0  0  0  0  0  0  0
   12.6338   -8.6738    0.0000 C    0  0  0  0  0  0  0  0  0  0  0  0
   13.9437   -6.5020    0.0000 C    0  0  0  0  0  0  0  0  0  0  0  0
   11.5821   -7.7318    0.0000 C    0  0  0  0  0  0  0  0  0  0  0  0
   12.7862   -5.6328    0.0000 C    0  0  0  0  0  0  0  0  0  0  0  0
   11.4995   -6.3241    0.0000 C    0  0  0  0  0  0  0  0  0  0  0  0
    7.6776   -9.1094    0.0000 C    0  0  0  0  0  0  0  0  0  0  0  0
    8.7595   -8.0309    0.0000 C    0  0  0  0  0  0  0  0  0  0  0  0
    8.4096  -10.2818    0.0000 C    0  0  0  0  0  0  0  0  0  0  0  0
   10.0807   -8.5083    0.0000 C    0  0  0  0  0  0  0  0  0  0  0  0
    9.7936  -10.5370    0.0000 C    0  0  0  0  0  0  0  0  0  0  0  0
   10.8829   -9.6712    0.0000 C    0  0  0  0  0  0  0  0  0  0  0  0
   12.4015  -13.4147    0.0000 C    0  0  0  0  0  0  0  0  0  0  0  0
   13.3978  -12.5310    0.0000 C    0  0  0  0  0  0  0  0  0  0  0  0
   11.3061  -14.6985    0.0000 As   0  0  0  0  0  0  0  0  0  0  0  0
   11.3179  -16.2962    0.0000 C    0  0  0  0  0  0  0  0  0  0  0  0
   10.5283  -17.4698    0.0000 C    0  0  0  0  0  0  0  0  0  0  0  0
   12.2574  -17.3516    0.0000 C    0  0  0  0  0  0  0  0  0  0  0  0
   10.3550  -18.8434    0.0000 C    0  0  0  0  0  0  0  0  0  0  0  0
   12.6945  -18.6643    0.0000 C    0  0  0  0  0  0  0  0  0  0  0  0
   11.5931  -19.6919    0.0000 C    0  0  0  0  0  0  0  0  0  0  0  0
    9.8254  -13.8189    0.0000 C    0  0  0  0  0  0  0  0  0  0  0  0
    9.5823  -12.4106    0.0000 C    0  0  0  0  0  0  0  0  0  0  0  0
    8.4881  -13.7970    0.0000 C    0  0  0  0  0  0  0  0  0  0  0  0
    8.3709  -11.7748    0.0000 C    0  0  0  0  0  0  0  0  0  0  0  0
    7.0728  -13.5932    0.0000 C    0  0  0  0  0  0  0  0  0  0  0  0
    6.9432  -12.0789    0.0000 C    0  0  0  0  0  0  0  0  0  0  0  0
   14.6182  -11.6974    0.0000 P    0  0  0  0  0  0  0  0  0  0  0  0
   17.1253  -11.0011    0.0000 C    0  0  0  0  0  0  0  0  0  0  0  0
   15.7619  -10.6477    0.0000 C    0  0  0  0  0  0  0  0  0  0  0  0
   18.4024  -10.4444    0.0000 C    0  0  0  0  0  0  0  0  0  0  0  0
   15.8444   -9.2051    0.0000 C    0  0  0  0  0  0  0  0  0  0  0  0
   18.3985   -8.9519    0.0000 C    0  0  0  0  0  0  0  0  0  0  0  0
   17.0275   -8.4094    0.0000 C    0  0  0  0  0  0  0  0  0  0  0  0
   18.1948  -14.9956    0.0000 C    0  0  0  0  0  0  0  0  0  0  0  0
   18.4469  -13.4996    0.0000 C    0  0  0  0  0  0  0  0  0  0  0  0
   16.7613  -15.0914    0.0000 C    0  0  0  0  0  0  0  0  0  0  0  0
   17.3356  -12.6412    0.0000 C    0  0  0  0  0  0  0  0  0  0  0  0
   15.9595  -13.9353    0.0000 C    0  0  0  0  0  0  0  0  0  0  0  0
   15.8861  -12.5955    0.0000 C    0  0  0  0  0  0  0  0  0  0  0  0
  1  2  2  0  0  0  0
  1  3  2  0  0  0  0
  1  4  2  0  0  0  0
  1  5  1  0  0  0  0
  7  8  1  0  0  0  0
  7  9  1  0  0  0  0
 10 11  1  0  0  0  0
 10 12  2  0  0  0  0
 11 13  2  0  0  0  0
 12 14  1  0  0  0  0
 13 15  1  0  0  0  0
 14 15  2  0  0  0  0
  9 10  1  0  0  0  0
 16 17  1  0  0  0  0
 16 18  2  0  0  0  0
 17 19  2  0  0  0  0
 18 20  1  0  0  0  0
 19 21  1  0  0  0  0
 20 21  2  0  0  0  0
  9 16  1  0  0  0  0
  8 22  1  0  0  0  0
 23 24  1  0  0  0  0
 23 25  2  0  0  0  0
 24 26  2  0  0  0  0
 25 27  1  0  0  0  0
 26 28  1  0  0  0  0
 27 28  2  0  0  0  0
 22 24  1  0  0  0  0
 29 30  1  0  0  0  0
 29 31  2  0  0  0  0
 30 32  2  0  0  0  0
 31 33  1  0  0  0  0
 32 34  1  0  0  0  0
 33 34  2  0  0  0  0
 22 34  1  0  0  0  0
  6 22  1  0  0  0  0
 35 36  1  0  0  0  0
 35 37  1  0  0  0  0
 38 39  1  0  0  0  0
 38 40  2  0  0  0  0
 39 41  2  0  0  0  0
 40 42  1  0  0  0  0
 41 43  1  0  0  0  0
 42 43  2  0  0  0  0
 37 38  1  0  0  0  0
 44 45  1  0  0  0  0
 44 46  2  0  0  0  0
 45 47  2  0  0  0  0
 46 48  1  0  0  0  0
 47 49  1  0  0  0  0
 48 49  2  0  0  0  0
 37 44  1  0  0  0  0
 36 50  1  0  0  0  0
 51 52  1  0  0  0  0
 51 53  2  0  0  0  0
 52 54  2  0  0  0  0
 53 55  1  0  0  0  0
 54 56  1  0  0  0  0
 55 56  2  0  0  0  0
 50 52  1  0  0  0  0
 57 58  1  0  0  0  0
 57 59  2  0  0  0  0
 58 60  2  0  0  0  0
 59 61  1  0  0  0  0
 60 62  1  0  0  0  0
 61 62  2  0  0  0  0
 50 62  1  0  0  0  0
  6 50  1  0  0  0  0
M  END
> <NMREDATA_VERSION>
1.1

> <NMREDATA_LEVEL>
0

> <NMREDATA_SOLVENT>
CD2Cl2

> <NMREDATA_TEMPERATURE>
298

> <NMREDATA_FORMULA>
C52H51As2ClO4P2Rh

> <NMREDATA_SMILES>
c1ccc(cc1)P(c1ccccc1)([Rh]P(c1ccccc1)(c1ccccc1)CC[As](c1ccccc1)c1ccccc1)CC[As](c1ccccc1)c1ccccc1.O[Cl](=O)(=O)=O

> <NMREDATA_ASSIGNMENT>
Rh6, 1224.00, 6

> <NMREDATA_1D_103Rh>
1224.00, L=Rh6

$$$$
