
  ACD/LABS02122410552D

 28 29  0  0  0  0  0  0  0  0  1 V2000
   16.6040  -13.5747    0.0000 Rh   0  0  0  0  0  0  0  0  0  0  0  0
   17.7920  -11.8943    0.0000 La   0  0  0  0  0  0  0  0  0  0  0  0
   14.5725  -13.6477    0.0000 C    0  0  0  0  0  0  0  0  0  0  0  0
   13.3506  -11.9817    0.0000 C    0  0  0  0  0  0  0  0  0  0  0  0
   19.8346  -12.0245    0.0000 O    0  0  0  0  0  0  0  0  0  0  0  0
   21.0659  -13.6599    0.0000 Si   0  0  0  0  0  0  0  0  0  0  0  0
   22.7746  -12.4465    0.0000 C    0  0  0  0  0  0  0  0  0  0  0  0
   19.2834  -14.6521    0.0000 C    0  0  0  0  0  0  0  0  0  0  0  0
   22.0491  -15.5141    0.0000 N    0  0  0  0  0  0  0  0  0  0  0  0
   20.9543  -17.2749    0.0000 C    0  0  0  0  0  0  0  0  0  0  0  0
   18.8981  -17.4126    0.0000 C    0  0  0  0  0  0  0  0  0  0  0  0
   21.9971  -19.0812    0.0000 C    0  0  0  0  0  0  0  0  0  0  0  0
   17.8425  -19.1650    0.0000 C    0  0  0  0  0  0  0  0  0  0  0  0
   20.9788  -20.8778    0.0000 C    0  0  0  0  0  0  0  0  0  0  0  0
   18.9133  -20.9588    0.0000 N    0  0  0  0  0  0  0  0  0  0  0  0
   24.1177  -15.6473    0.0000 C    0  0  0  0  0  0  0  0  0  0  0  0
   16.7749  -10.0875    0.0000 O    0  0  0  0  0  0  0  0  0  0  0  0
   17.7137   -8.2216    0.0000 Si   0  0  0  0  0  0  0  0  0  0  0  0
   19.4600   -9.2464    0.0000 C    0  0  0  0  0  0  0  0  0  0  0  0
   15.8301   -7.2850    0.0000 C    0  0  0  0  0  0  0  0  0  0  0  0
   18.8836   -6.4662    0.0000 N    0  0  0  0  0  0  0  0  0  0  0  0
   20.9735   -6.4727    0.0000 C    0  0  0  0  0  0  0  0  0  0  0  0
   22.0205   -4.6820    0.0000 C    0  0  0  0  0  0  0  0  0  0  0  0
   22.0927   -8.2116    0.0000 C    0  0  0  0  0  0  0  0  0  0  0  0
   24.0880   -4.6809    0.0000 C    0  0  0  0  0  0  0  0  0  0  0  0
   24.1405   -8.2496    0.0000 C    0  0  0  0  0  0  0  0  0  0  0  0
   25.1744   -6.4378    0.0000 N    0  0  0  0  0  0  0  0  0  0  0  0
   17.9721   -4.5975    0.0000 C    0  0  0  0  0  0  0  0  0  0  0  0
  1  2  1  0  0  0  0
  1  3  2  0  0  0  0
  3  4  1  0  0  0  0
  2  5  1  0  0  0  0
  6  7  1  0  0  0  0
  6  8  1  0  0  0  0
  6  9  1  0  0  0  0
 10 11  1  0  0  0  0
 10 12  2  0  0  0  0
 11 13  2  0  0  0  0
 12 14  1  0  0  0  0
 13 15  1  0  0  0  0
 14 15  2  0  0  0  0
  9 10  1  0  0  0  0
  9 16  1  0  0  0  0
  5  6  1  0  0  0  0
  2 17  1  0  0  0  0
 18 19  1  0  0  0  0
 18 20  1  0  0  0  0
 18 21  1  0  0  0  0
 22 23  1  0  0  0  0
 22 24  2  0  0  0  0
 23 25  2  0  0  0  0
 24 26  1  0  0  0  0
 25 27  1  0  0  0  0
 26 27  2  0  0  0  0
 21 22  1  0  0  0  0
 21 28  1  0  0  0  0
 17 18  1  0  0  0  0
M  END
> <NMREDATA_VERSION>
1.1

> <NMREDATA_LEVEL>
0

> <NMREDATA_SOLVENT>
C6D6

> <NMREDATA_TEMPERATURE>
297

> <NMREDATA_FORMULA>
C18H30LaN4O2RhSi2

> <NMREDATA_SMILES>
C/C=[Rh]\[La](O[Si](N(c1ccncc1)C)(C)C)O[Si](N(c1ccncc1)C)(C)C

> <NMREDATA_ASSIGNMENT>
Rh1, 2152.00, 1

> <NMREDATA_1D_103Rh>
2152.00, L=Rh1

$$$$
