
  ACD/LABS04032410382D

 18 17  0  0  0  0  0  0  0  0  1 V2000
   11.0875  -21.0267    0.0000 C    0  0  0  0  0  0  0  0  0  0  0  0
   11.0875  -22.7253    0.0000 As   0  0  0  0  0  0  0  0  0  0  0  0
   12.5585  -23.5746    0.0000 C    0  0  0  0  0  0  0  0  0  0  0  0
    9.6165  -23.5746    0.0000 C    0  0  0  0  0  0  0  0  0  0  0  0
   11.2962  -19.0409    0.0000 Rh   0  0  0  0  0  0  0  0  0  0  0  0
   10.1597  -20.3032    0.0000 Cl   0  0  0  0  0  0  0  0  0  0  0  0
   12.4328  -17.7786    0.0000 Cl   0  0  0  0  0  0  0  0  0  0  0  0
   10.0340  -17.9043    0.0000 Cl   0  0  0  0  0  0  0  0  0  0  0  0
   12.5585  -20.1775    0.0000 C    0  0  0  0  0  0  0  0  0  0  0  0
   13.2494  -18.6257    0.0000 C    0  0  0  0  0  0  0  0  0  0  0  0
   14.2478  -20.3550    0.0000 C    0  0  0  0  0  0  0  0  0  0  0  0
   15.2462  -18.9808    0.0000 As   0  0  0  0  0  0  0  0  0  0  0  0
   14.5553  -17.4291    0.0000 C    0  0  0  0  0  0  0  0  0  0  0  0
   16.9354  -19.1584    0.0000 C    0  0  0  0  0  0  0  0  0  0  0  0
   12.9117  -21.8389    0.0000 C    0  0  0  0  0  0  0  0  0  0  0  0
   14.5271  -22.3638    0.0000 As   0  0  0  0  0  0  0  0  0  0  0  0
   15.7894  -21.2272    0.0000 C    0  0  0  0  0  0  0  0  0  0  0  0
   14.8802  -24.0252    0.0000 C    0  0  0  0  0  0  0  0  0  0  0  0
  1  2  1  0  0  0  0
  2  3  1  0  0  0  0
  2  4  1  0  0  0  0
  5  6  1  0  0  0  0
  5  7  1  0  0  0  0
  5  8  1  0  0  0  0
  5  9  1  0  0  0  0
  9 10  1  0  0  0  0
  9 11  1  0  0  0  0
 11 12  1  0  0  0  0
 12 13  1  0  0  0  0
 12 14  1  0  0  0  0
 15 16  1  0  0  0  0
 16 17  1  0  0  0  0
 16 18  1  0  0  0  0
  9 15  1  0  0  0  0
  1  9  1  0  0  0  0
M  END
> <NMREDATA_VERSION>
1.1

> <NMREDATA_LEVEL>
0

> <NMREDATA_SOLVENT>
CD2Cl2

> <NMREDATA_TEMPERATURE>
300

> <NMREDATA_FORMULA>
C11H27As3Cl3Rh

> <NMREDATA_SMILES>
C[As](C[C]([Rh](Cl)(Cl)Cl)(C[As](C)C)(C[As](C)C)C)C

> <NMREDATA_ASSIGNMENT>
Rh5, 2428.00, 5

> <NMREDATA_1D_103Rh>
2428.00, L=Rh5

$$$$
