
  ACD/LABS04042409532D

 33 34  0  0  0  0  0  0  0  0  2 V2000
   23.5634  -14.1813    0.0000 B    0  5  0  0  0  0  0  0  0  0  0  0
   23.5634  -12.9955    0.0000 F    0  0  0  0  0  0  0  0  0  0  0  0
   24.7492  -14.1813    0.0000 F    0  0  0  0  0  0  0  0  0  0  0  0
   22.3777  -14.1813    0.0000 F    0  0  0  0  0  0  0  0  0  0  0  0
   23.5634  -15.3671    0.0000 F    0  0  0  0  0  0  0  0  0  0  0  0
   12.7542   -8.6338    0.0000 Rh   0  3  0  0  0  0  0  0  0  0  0  0
   14.4889   -7.6323    0.0000 I    0  0  0  0  0  0  0  0  0  0  0  0
   11.0196   -7.6323    0.0000 I    0  0  0  0  0  0  0  0  0  0  0  0
   12.7542  -10.6369    0.0000 As   0  0  0  0  0  0  0  0  0  0  0  0
   12.7542  -12.6399    0.0000 C    0  0  0  0  0  0  0  0  0  0  0  0
   14.4889  -13.6414    0.0000 C    0  0  0  0  0  0  0  0  0  0  0  0
   11.0196  -13.6414    0.0000 C    0  0  0  0  0  0  0  0  0  0  0  0
   14.4889  -15.6444    0.0000 C    0  0  0  0  0  0  0  0  0  0  0  0
   11.0196  -15.6444    0.0000 C    0  0  0  0  0  0  0  0  0  0  0  0
   12.7542  -16.6459    0.0000 C    0  0  0  0  0  0  0  0  0  0  0  0
   10.7512  -10.6369    0.0000 C    0  0  0  0  0  0  0  0  0  0  0  0
    9.7497  -12.3715    0.0000 C    0  0  0  0  0  0  0  0  0  0  0  0
    9.7497   -8.9022    0.0000 C    0  0  0  0  0  0  0  0  0  0  0  0
    7.7467  -12.3715    0.0000 C    0  0  0  0  0  0  0  0  0  0  0  0
    7.7467   -8.9022    0.0000 C    0  0  0  0  0  0  0  0  0  0  0  0
    6.7452  -10.6369    0.0000 C    0  0  0  0  0  0  0  0  0  0  0  0
   18.7633  -10.6369    0.0000 C    0  0  0  0  0  0  0  0  0  0  0  0
   17.7618  -12.3715    0.0000 C    0  0  0  0  0  0  0  0  0  0  0  0
   17.7618   -8.9022    0.0000 C    0  0  0  0  0  0  0  0  0  0  0  0
   15.7588  -12.3715    0.0000 C    0  0  0  0  0  0  0  0  0  0  0  0
   15.7588   -8.9022    0.0000 C    0  0  0  0  0  0  0  0  0  0  0  0
   14.7573  -10.6369    0.0000 C    0  0  0  0  0  0  0  0  0  0  0  0
   10.7512  -14.1062    0.0000 As   0  0  0  0  0  0  0  0  0  0  0  0
   14.7573   -7.1675    0.0000 As   0  0  0  0  0  0  0  0  0  0  0  0
    9.2849  -12.6399    0.0000 As   0  0  0  0  0  0  0  0  0  0  0  0
    9.7497  -15.8408    0.0000 C    0  0  0  0  0  0  0  0  0  0  0  0
   15.7588   -5.4329    0.0000 C    0  0  0  0  0  0  0  0  0  0  0  0
    9.2849  -10.6369    0.0000 C    0  0  0  0  0  0  0  0  0  0  0  0
  1  2  1  0  0  0  0
  1  3  1  0  0  0  0
  1  4  1  0  0  0  0
  1  5  1  0  0  0  0
  6  7  1  0  0  0  0
  6  8  1  0  0  0  0
  6  9  1  0  0  0  0
 10 11  1  0  0  0  0
 10 12  2  0  0  0  0
 11 13  2  0  0  0  0
 12 14  1  0  0  0  0
 13 15  1  0  0  0  0
 14 15  2  0  0  0  0
  9 10  1  0  0  0  0
 16 17  1  0  0  0  0
 16 18  2  0  0  0  0
 17 19  2  0  0  0  0
 18 20  1  0  0  0  0
 19 21  1  0  0  0  0
 20 21  2  0  0  0  0
  9 16  1  0  0  0  0
 22 23  1  0  0  0  0
 22 24  2  0  0  0  0
 23 25  2  0  0  0  0
 24 26  1  0  0  0  0
 25 27  1  0  0  0  0
 26 27  2  0  0  0  0
  9 27  1  0  0  0  0
 17 28  1  0  0  0  0
 26 29  1  0  0  0  0
 12 30  1  0  0  0  0
 28 31  1  0  0  0  0
 29 32  1  0  0  0  0
 30 33  1  0  0  0  0
M  END
> <NMREDATA_VERSION>
1.1

> <NMREDATA_LEVEL>
0

> <NMREDATA_SOLVENT>
DMF-d7

> <NMREDATA_TEMPERATURE>
300

> <NMREDATA_FORMULA>
C21H25As4BF4I2Rh

> <NMREDATA_SMILES>
F[B](F)(F)F.C[AsH]c1ccccc1[AsH](c1ccccc1[AsH]C)(c1ccccc1[AsH]C)[Rh](I)I

> <NMREDATA_ASSIGNMENT>
Rh6, 650.00, 6

> <NMREDATA_1D_103Rh>
650.00, L=Rh6

$$$$
