
  ACD/LABS03122418232D

 30 28  0  0  0  0  0  0  0  0  2 V2000
   13.1997   -8.4085    0.0000 Rh   0  3  0  0  0  0  0  0  0  0  0  0
   12.4225   -7.0624    0.0000 P    0  0  0  0  0  0  0  0  0  0  0  0
   11.6454   -5.7163    0.0000 C    0  0  0  0  0  0  0  0  0  0  0  0
   11.0764   -7.8396    0.0000 C    0  0  0  0  0  0  0  0  0  0  0  0
   13.7686   -6.2852    0.0000 C    0  0  0  0  0  0  0  0  0  0  0  0
   15.1147   -7.0624    0.0000 C    0  0  0  0  0  0  0  0  0  0  0  0
   16.4608   -6.2852    0.0000 P    0  0  0  0  0  0  0  0  0  0  0  0
   16.4608   -4.7309    0.0000 C    0  0  0  0  0  0  0  0  0  0  0  0
   17.8069   -7.0624    0.0000 C    0  0  0  0  0  0  0  0  0  0  0  0
   12.4225   -9.7546    0.0000 P    0  0  0  0  0  0  0  0  0  0  0  0
   11.0764   -8.9774    0.0000 C    0  0  0  0  0  0  0  0  0  0  0  0
   13.7686  -10.5318    0.0000 C    0  0  0  0  0  0  0  0  0  0  0  0
   11.6454  -11.1007    0.0000 C    0  0  0  0  0  0  0  0  0  0  0  0
   12.4225  -12.4468    0.0000 C    0  0  0  0  0  0  0  0  0  0  0  0
   11.6454  -13.7929    0.0000 P    0  0  0  0  0  0  0  0  0  0  0  0
   12.4225  -15.1390    0.0000 C    0  0  0  0  0  0  0  0  0  0  0  0
   10.0910  -13.7929    0.0000 C    0  0  0  0  0  0  0  0  0  0  0  0
   12.4225   -4.3702    0.0000 C    0  0  0  0  0  0  0  0  0  0  0  0
   17.8069   -3.9537    0.0000 C    0  0  0  0  0  0  0  0  0  0  0  0
   17.8069   -8.6167    0.0000 C    0  0  0  0  0  0  0  0  0  0  0  0
    9.7304   -7.0624    0.0000 C    0  0  0  0  0  0  0  0  0  0  0  0
   11.0764   -7.4231    0.0000 C    0  0  0  0  0  0  0  0  0  0  0  0
   13.7686  -12.0861    0.0000 C    0  0  0  0  0  0  0  0  0  0  0  0
    9.3139  -12.4468    0.0000 C    0  0  0  0  0  0  0  0  0  0  0  0
   11.6454  -16.4851    0.0000 C    0  0  0  0  0  0  0  0  0  0  0  0
   22.0732   -8.1963    0.0000 Cl   0  0  0  0  0  0  0  0  0  0  0  0
   21.4322   -7.0861    0.0000 O    0  0  0  0  0  0  0  0  0  0  0  0
   23.1834   -7.5554    0.0000 O    0  0  0  0  0  0  0  0  0  0  0  0
   20.9630   -8.8373    0.0000 O    0  0  0  0  0  0  0  0  0  0  0  0
   22.7142   -9.3065    0.0000 O    0  5  0  0  0  0  0  0  0  0  0  0
  1  2  1  0  0  0  0
  2  3  1  0  0  0  0
  2  4  1  0  0  0  0
  2  5  1  0  0  0  0
  5  6  1  0  0  0  0
  6  7  1  0  0  0  0
  7  8  1  0  0  0  0
  7  9  1  0  0  0  0
 10 11  1  0  0  0  0
 10 12  1  0  0  0  0
 10 13  1  0  0  0  0
 13 14  1  0  0  0  0
 14 15  1  0  0  0  0
 15 16  1  0  0  0  0
 15 17  1  0  0  0  0
  1 10  1  0  0  0  0
  3 18  1  0  0  0  0
  8 19  1  0  0  0  0
  9 20  1  0  0  0  0
  4 21  1  0  0  0  0
 11 22  1  0  0  0  0
 12 23  1  0  0  0  0
 17 24  1  0  0  0  0
 16 25  1  0  0  0  0
 26 27  2  0  0  0  0
 26 28  2  0  0  0  0
 26 29  2  0  0  0  0
 26 30  1  0  0  0  0
M  END
> <NMREDATA_VERSION>
1.1

> <NMREDATA_LEVEL>
0

> <NMREDATA_SOLVENT>
CD2Cl2

> <NMREDATA_TEMPERATURE>
298

> <NMREDATA_FORMULA>
C20H51ClO4P4Rh

> <NMREDATA_SMILES>
O[Cl](=O)(=O)=O.CCP(CCP([Rh]P(CCP(CC)CC)(CC)CC)(CC)CC)CC

> <NMREDATA_ASSIGNMENT>
Rh1, -1353.00, 1

> <NMREDATA_1D_103Rh>
-1353.00, L=Rh1

$$$$
