
  ACD/LABS02222414162D

 13 13  0  0  0  0  0  0  0  0  1 V2000
   13.1353   -8.9311    0.0000 C    0  0  0  0  0  0  0  0  0  0  0  0
   14.4173   -8.5021    0.0000 C    0  0  0  0  0  0  0  0  0  0  0  0
   13.1353  -10.2476    0.0000 C    0  0  0  0  0  0  0  0  0  0  0  0
   15.1208   -9.6372    0.0000 C    0  0  0  0  0  0  0  0  0  0  0  0
   14.3915  -10.7768    0.0000 C    0  0  0  0  0  0  0  0  0  0  0  0
   15.6208  -11.3036    0.0000 Rh   0  0  0  0  0  0  0  0  0  0  0  0
   16.7188  -10.5826    0.0000 C    0  0  0  0  0  0  0  0  0  0  0  0
   15.8617  -12.5788    0.0000 C    0  0  0  0  0  0  0  0  0  0  0  0
   17.8923  -11.1279    0.0000 O    0  0  0  0  0  0  0  0  0  0  0  0
   17.0268  -13.1359    0.0000 O    0  0  0  0  0  0  0  0  0  0  0  0
   13.7065  -11.9131    0.0000 N    0  0  0  0  0  0  0  0  0  0  0  0
   12.3775  -11.9654    0.0000 C    0  0  0  0  0  0  0  0  0  0  0  0
   14.0912  -13.1645    0.0000 C    0  0  0  0  0  0  0  0  0  0  0  0
  1  2  1  0  0  0  0
  1  3  2  0  0  0  0
  2  4  2  0  0  0  0
  3  5  1  0  0  0  0
  4  5  1  0  0  0  0
  5  6  1  0  0  0  0
  6  7  1  0  0  0  0
  6  8  1  0  0  0  0
  7  9  3  0  0  0  0
  8 10  3  0  0  0  0
  5 11  1  0  0  0  0
 11 12  1  0  0  0  0
 11 13  1  0  0  0  0
M  END
> <NMREDATA_VERSION>
1.1

> <NMREDATA_LEVEL>
0

> <NMREDATA_SOLVENT>
C6D6

> <NMREDATA_TEMPERATURE>
298

> <NMREDATA_FORMULA>
C9H10NO2Rh

> <NMREDATA_SMILES>
CN(C1(C=CC=C1)[Rh](C#[O])C#[O])C

> <NMREDATA_ASSIGNMENT>
Rh6, 1248.00, 6

> <NMREDATA_1D_103Rh>
1248.00, L=Rh6

$$$$
