
  ACD/LABS04092416062D

 68 73  0  0  0  0  0  0  0  0  2 V2000
   19.2967  -10.9407    0.0000 C    0  0  0  0  0  0  0  0  0  0  0  0
   19.2967  -11.6940    0.0000 C    0  0  0  0  0  0  0  0  0  0  0  0
   18.6390  -10.5692    0.0000 C    0  0  0  0  0  0  0  0  0  0  0  0
   18.6488  -12.0759    0.0000 C    0  0  0  0  0  0  0  0  0  0  0  0
   17.9911  -10.9508    0.0000 C    0  0  0  0  0  0  0  0  0  0  0  0
   17.9962  -11.6991    0.0000 C    0  0  0  0  0  0  0  0  0  0  0  0
   18.6390   -9.8159    0.0000 P    0  0  0  0  0  0  0  0  0  0  0  0
   18.6339   -9.0679    0.0000 C    0  0  0  0  0  0  0  0  0  0  0  0
   19.2818   -8.6861    0.0000 C    0  0  0  0  0  0  0  0  0  0  0  0
   17.9759   -8.6911    0.0000 C    0  0  0  0  0  0  0  0  0  0  0  0
   19.2818   -7.9327    0.0000 C    0  0  0  0  0  0  0  0  0  0  0  0
   17.9759   -7.9378    0.0000 C    0  0  0  0  0  0  0  0  0  0  0  0
   18.6238   -7.5613    0.0000 C    0  0  0  0  0  0  0  0  0  0  0  0
   19.3923   -9.8108    0.0000 C    0  0  0  0  0  0  0  0  0  0  0  0
   19.7638   -9.1633    0.0000 C    0  0  0  0  0  0  0  0  0  0  0  0
   19.7688  -10.4638    0.0000 C    0  0  0  0  0  0  0  0  0  0  0  0
   20.5171   -9.1582    0.0000 C    0  0  0  0  0  0  0  0  0  0  0  0
   20.5222  -10.4587    0.0000 C    0  0  0  0  0  0  0  0  0  0  0  0
   20.8987   -9.8007    0.0000 C    0  0  0  0  0  0  0  0  0  0  0  0
   13.6270   -8.8469    0.0000 C    0  0  0  0  0  0  0  0  0  0  0  0
   13.4914   -8.1034    0.0000 C    0  0  0  0  0  0  0  0  0  0  0  0
   14.3353   -9.0980    0.0000 C    0  0  0  0  0  0  0  0  0  0  0  0
   14.0690   -7.6164    0.0000 C    0  0  0  0  0  0  0  0  0  0  0  0
   14.9129   -8.6158    0.0000 C    0  0  0  0  0  0  0  0  0  0  0  0
   14.7771   -7.8726    0.0000 C    0  0  0  0  0  0  0  0  0  0  0  0
   16.9965   -9.8210    0.0000 Rh   0  5  0  0  0  0  0  0  0  0  0  0
   17.8604   -9.2133    0.0000 H    0  0  0  0  0  0  0  0  0  0  0  0
   17.3683   -9.1734    0.0000 H    0  0  0  0  0  0  0  0  0  0  0  0
   16.1780  -11.2523    0.0000 Sn   0  0  0  0  0  4  0  0  0  0  0  0
   16.1681   -8.4099    0.0000 Sn   0  0  0  0  0  4  0  0  0  0  0  0
   15.4452  -11.1215    0.0000 C    0  0  0  0  0  0  0  0  0  0  0  0
   16.9212  -11.3777    0.0000 C    0  0  0  0  0  0  0  0  0  0  0  0
   16.3087  -11.9904    0.0000 C    0  0  0  0  0  0  0  0  0  0  0  0
   16.8157   -8.0284    0.0000 C    0  0  0  0  0  0  0  0  0  0  0  0
   15.4651   -8.6712    0.0000 C    0  0  0  0  0  0  0  0  0  0  0  0
   15.7916   -7.7621    0.0000 C    0  0  0  0  0  0  0  0  0  0  0  0
   17.1824  -12.0857    0.0000 C    0  0  0  0  0  0  0  0  0  0  0  0
   16.7004  -12.6633    0.0000 C    0  0  0  0  0  0  0  0  0  0  0  0
   16.9566  -13.3713    0.0000 C    0  0  0  0  0  0  0  0  0  0  0  0
   14.9629  -11.6991    0.0000 C    0  0  0  0  0  0  0  0  0  0  0  0
   14.9629  -12.4524    0.0000 C    0  0  0  0  0  0  0  0  0  0  0  0
   14.3150  -12.8292    0.0000 C    0  0  0  0  0  0  0  0  0  0  0  0
   16.1580   -7.1041    0.0000 C    0  0  0  0  0  0  0  0  0  0  0  0
   15.7865   -6.4562    0.0000 C    0  0  0  0  0  0  0  0  0  0  0  0
   16.1529   -5.8035    0.0000 C    0  0  0  0  0  0  0  0  0  0  0  0
   15.7365  -12.4726    0.0000 C    0  0  0  0  0  0  0  0  0  0  0  0
   15.8670  -13.2158    0.0000 C    0  0  0  0  0  0  0  0  0  0  0  0
   15.2894  -13.6978    0.0000 C    0  0  0  0  0  0  0  0  0  0  0  0
   16.8109   -7.2750    0.0000 C    0  0  0  0  0  0  0  0  0  0  0  0
   17.4636   -6.8982    0.0000 C    0  0  0  0  0  0  0  0  0  0  0  0
   17.4588   -6.1449    0.0000 C    0  0  0  0  0  0  0  0  0  0  0  0
   15.3397   -9.4144    0.0000 C    0  0  0  0  0  0  0  0  0  0  0  0
   15.9221   -9.8913    0.0000 C    0  0  0  0  0  0  0  0  0  0  0  0
   15.7916  -10.6345    0.0000 C    0  0  0  0  0  0  0  0  0  0  0  0
   17.3733  -10.4736    0.0000 H    0  0  0  0  0  0  0  0  0  0  0  0
   14.4708   -9.8359    0.0000 P    0  0  0  0  0  0  0  0  0  0  0  0
   14.2147  -10.5439    0.0000 C    0  0  0  0  0  0  0  0  0  0  0  0
   14.6013  -11.1968    0.0000 C    0  0  0  0  0  0  0  0  0  0  0  0
   13.4613  -10.5540    0.0000 C    0  0  0  0  0  0  0  0  0  0  0  0
   14.2299  -11.8498    0.0000 C    0  0  0  0  0  0  0  0  0  0  0  0
   13.0947  -11.2120    0.0000 C    0  0  0  0  0  0  0  0  0  0  0  0
   13.4765  -11.8599    0.0000 C    0  0  0  0  0  0  0  0  0  0  0  0
   12.8537  -10.1272    0.0000 C    0  0  0  0  0  0  0  0  0  0  0  0
   12.3667   -9.5550    0.0000 C    0  0  0  0  0  0  0  0  0  0  0  0
   12.5975  -10.8352    0.0000 C    0  0  0  0  0  0  0  0  0  0  0  0
   11.6232   -9.6905    0.0000 C    0  0  0  0  0  0  0  0  0  0  0  0
   11.8543  -10.9708    0.0000 C    0  0  0  0  0  0  0  0  0  0  0  0
   11.3673  -10.3935    0.0000 C    0  0  0  0  0  0  0  0  0  0  0  0
  1  2  1  0  0  0  0
  1  3  2  0  0  0  0
  2  4  2  0  0  0  0
  3  5  1  0  0  0  0
  4  6  1  0  0  0  0
  5  6  2  0  0  0  0
  8  9  1  0  0  0  0
  8 10  2  0  0  0  0
  9 11  2  0  0  0  0
 10 12  1  0  0  0  0
 11 13  1  0  0  0  0
 12 13  2  0  0  0  0
  7  8  1  0  0  0  0
 14 15  1  0  0  0  0
 14 16  2  0  0  0  0
 15 17  2  0  0  0  0
 16 18  1  0  0  0  0
 17 19  1  0  0  0  0
 18 19  2  0  0  0  0
  7 14  1  0  0  0  0
  3  7  1  0  0  0  0
 20 21  1  0  0  0  0
 20 22  2  0  0  0  0
 21 23  2  0  0  0  0
 22 24  1  0  0  0  0
 23 25  1  0  0  0  0
 24 25  2  0  0  0  0
 26 27  1  0  0  0  0
 26 28  1  0  0  0  0
 26 29  1  0  0  0  0
 26 30  1  0  0  0  0
 29 31  1  0  0  0  0
 29 32  1  0  0  0  0
 29 33  1  0  0  0  0
 30 34  1  0  0  0  0
 30 35  1  0  0  0  0
 30 36  1  0  0  0  0
 32 37  1  0  0  0  0
 37 38  1  0  0  0  0
 38 39  1  0  0  0  0
 31 40  1  0  0  0  0
 40 41  1  0  0  0  0
 41 42  1  0  0  0  0
 36 43  1  0  0  0  0
 43 44  1  0  0  0  0
 44 45  1  0  0  0  0
 33 46  1  0  0  0  0
 46 47  1  0  0  0  0
 47 48  1  0  0  0  0
 34 49  1  0  0  0  0
 49 50  1  0  0  0  0
 50 51  1  0  0  0  0
 35 52  1  0  0  0  0
 52 53  1  0  0  0  0
 53 54  1  0  0  0  0
 26 55  1  0  0  0  0
 26 56  1  0  0  0  0
 57 58  1  0  0  0  0
 57 59  2  0  0  0  0
 58 60  2  0  0  0  0
 59 61  1  0  0  0  0
 60 62  1  0  0  0  0
 61 62  2  0  0  0  0
 56 57  1  0  0  0  0
 63 64  1  0  0  0  0
 63 65  2  0  0  0  0
 64 66  2  0  0  0  0
 65 67  1  0  0  0  0
 66 68  1  0  0  0  0
 67 68  2  0  0  0  0
 56 63  1  0  0  0  0
 22 56  1  0  0  0  0
  7 26  1  0  0  0  0
M  END
> <NMREDATA_VERSION>
1.1

> <NMREDATA_LEVEL>
0

> <NMREDATA_SOLVENT>
CD2Cl2

> <NMREDATA_TEMPERATURE>
248

> <NMREDATA_FORMULA>
C60H89P2RhSn2

> <NMREDATA_SMILES>
CCCC[Sn]([RhH3](P(c1ccccc1)(c1ccccc1)c1ccccc1)(P(c1ccccc1)(c1ccccc1)c1ccccc1)[Sn](CCCC)(CCCC)CCCC)(CCCC)CCCC

> <NMREDATA_ASSIGNMENT>
Rh26, -1440.00, 26

> <NMREDATA_1D_103Rh>
-1440.00, L=Rh26

$$$$
