
  ACD/LABS03122417092D

 42 47  0  0  0  0  0  0  0  0  1 V2000
    8.8114  -13.6285    0.0000 C    0  0  0  0  0  0  0  0  0  0  0  0
    8.8114  -14.9585    0.0000 C    0  0  0  0  0  0  0  0  0  0  0  0
    7.6595  -12.9635    0.0000 C    0  0  0  0  0  0  0  0  0  0  0  0
    7.6595  -15.6235    0.0000 C    0  0  0  0  0  0  0  0  0  0  0  0
    6.5077  -13.6285    0.0000 C    0  0  0  0  0  0  0  0  0  0  0  0
    6.5077  -14.9585    0.0000 C    0  0  0  0  0  0  0  0  0  0  0  0
    5.4143  -13.2760    0.0000 C    0  0  0  0  0  0  0  0  0  0  0  0
    5.4143  -14.6060    0.0000 C    0  0  0  0  0  0  0  0  0  0  0  0
    4.2623  -12.6110    0.0000 C    0  0  0  0  0  0  0  0  0  0  0  0
    4.2623  -15.2710    0.0000 C    0  0  0  0  0  0  0  0  0  0  0  0
    3.1106  -13.2760    0.0000 C    0  0  0  0  0  0  0  0  0  0  0  0
    3.1106  -14.6060    0.0000 C    0  0  0  0  0  0  0  0  0  0  0  0
    7.8839   -9.4382    0.0000 Rh   0  0  0  0  0  0  0  0  0  0  0  0
    9.6305   -8.3486    0.0000 P    0  0  0  0  0  0  0  0  0  0  0  0
    6.8102  -10.6560    0.0000 P    0  0  0  0  0  0  0  0  0  0  0  0
   13.5705   -5.1998    0.0000 C    0  0  0  0  0  0  0  0  0  0  0  0
   13.5705   -6.5298    0.0000 C    0  0  0  0  0  0  0  0  0  0  0  0
   12.4186   -4.5348    0.0000 C    0  0  0  0  0  0  0  0  0  0  0  0
   12.4186   -7.1948    0.0000 C    0  0  0  0  0  0  0  0  0  0  0  0
   11.2668   -5.1998    0.0000 C    0  0  0  0  0  0  0  0  0  0  0  0
   11.2668   -6.5298    0.0000 C    0  0  0  0  0  0  0  0  0  0  0  0
   15.5575   -7.3791    0.0000 C    0  0  0  0  0  0  0  0  0  0  0  0
   15.5575   -8.7091    0.0000 C    0  0  0  0  0  0  0  0  0  0  0  0
   14.4056   -6.7141    0.0000 C    0  0  0  0  0  0  0  0  0  0  0  0
   14.4056   -9.3741    0.0000 C    0  0  0  0  0  0  0  0  0  0  0  0
   13.2538   -7.3791    0.0000 C    0  0  0  0  0  0  0  0  0  0  0  0
   13.2538   -8.7091    0.0000 C    0  0  0  0  0  0  0  0  0  0  0  0
   14.5480  -10.6480    0.0000 C    0  0  0  0  0  0  0  0  0  0  0  0
   14.5480  -11.9780    0.0000 C    0  0  0  0  0  0  0  0  0  0  0  0
   13.3961   -9.9830    0.0000 C    0  0  0  0  0  0  0  0  0  0  0  0
   13.3961  -12.6430    0.0000 C    0  0  0  0  0  0  0  0  0  0  0  0
   12.2443  -10.6480    0.0000 C    0  0  0  0  0  0  0  0  0  0  0  0
   12.2443  -11.9780    0.0000 C    0  0  0  0  0  0  0  0  0  0  0  0
    4.3887  -10.6320    0.0000 C    0  0  0  0  0  0  0  0  0  0  0  0
    4.3887  -11.9620    0.0000 C    0  0  0  0  0  0  0  0  0  0  0  0
    3.2368   -9.9670    0.0000 C    0  0  0  0  0  0  0  0  0  0  0  0
    3.2368  -12.6270    0.0000 C    0  0  0  0  0  0  0  0  0  0  0  0
    2.0850  -10.6320    0.0000 C    0  0  0  0  0  0  0  0  0  0  0  0
    2.0850  -11.9620    0.0000 C    0  0  0  0  0  0  0  0  0  0  0  0
    7.0346   -7.7396    0.0000 Br   0  0  0  0  0  0  0  0  0  0  0  0
    9.5183  -11.2169    0.0000 C    0  0  0  0  0  0  0  0  0  0  0  0
   10.3035  -12.5469    0.0000 O    0  0  0  0  0  0  0  0  0  0  0  0
  1  2  1  0  0  0  0
  1  3  2  0  0  0  0
  2  4  2  0  0  0  0
  3  5  1  0  0  0  0
  4  6  1  0  0  0  0
  5  6  2  0  0  0  0
  7  8  1  0  0  0  0
  7  9  2  0  0  0  0
  8 10  2  0  0  0  0
  9 11  1  0  0  0  0
 10 12  1  0  0  0  0
 11 12  2  0  0  0  0
 13 14  1  0  0  0  0
 13 15  1  0  0  0  0
 16 17  1  0  0  0  0
 16 18  2  0  0  0  0
 17 19  2  0  0  0  0
 18 20  1  0  0  0  0
 19 21  1  0  0  0  0
 20 21  2  0  0  0  0
 14 21  1  0  0  0  0
 22 23  1  0  0  0  0
 22 24  2  0  0  0  0
 23 25  2  0  0  0  0
 24 26  1  0  0  0  0
 25 27  1  0  0  0  0
 26 27  2  0  0  0  0
 14 26  1  0  0  0  0
 28 29  1  0  0  0  0
 28 30  2  0  0  0  0
 29 31  2  0  0  0  0
 30 32  1  0  0  0  0
 31 33  1  0  0  0  0
 32 33  2  0  0  0  0
 14 30  1  0  0  0  0
 34 35  1  0  0  0  0
 34 36  2  0  0  0  0
 35 37  2  0  0  0  0
 36 38  1  0  0  0  0
 37 39  1  0  0  0  0
 38 39  2  0  0  0  0
 15 34  1  0  0  0  0
  7 15  1  0  0  0  0
  3 15  1  0  0  0  0
 13 40  1  0  0  0  0
 13 41  1  0  0  0  0
 41 42  3  0  0  0  0
M  END
> <NMREDATA_VERSION>
1.1

> <NMREDATA_LEVEL>
0

> <NMREDATA_SOLVENT>
DCCl3

> <NMREDATA_TEMPERATURE>
295

> <NMREDATA_FORMULA>
C37H32BrOP2Rh

> <NMREDATA_SMILES>
[O]#C[Rh](P(c1ccccc1)(c1ccccc1)c1ccccc1)(P(c1ccccc1)(c1ccccc1)c1ccccc1)Br

> <NMREDATA_ASSIGNMENT>
Rh13, -421.00, 13

> <NMREDATA_1D_103Rh>
-421.00, L=Rh13

$$$$
