
  ACD/LABS03242412442D

 29 31  0  0  0  0  0  0  0  0  1 V2000
   12.6310  -10.8092    0.0000 Rh   0  0  0  0  0  0  0  0  0  0  0  0
   10.7576   -9.7276    0.0000 Cl   0  0  0  0  0  0  0  0  0  0  0  0
   14.5044  -11.8908    0.0000 Cl   0  0  0  0  0  0  0  0  0  0  0  0
   13.7126   -8.9357    0.0000 C    0  0  0  0  0  0  0  0  0  0  0  0
   12.6310   -7.0623    0.0000 Cl   0  0  0  0  0  0  0  0  0  0  0  0
   11.5494  -12.6826    0.0000 N    0  0  0  0  0  0  0  0  0  0  0  0
   12.6310  -14.5560    0.0000 C    0  0  0  0  0  0  0  0  0  0  0  0
    9.3861  -12.6826    0.0000 C    0  0  0  0  0  0  0  0  0  0  0  0
   11.5494  -16.4295    0.0000 C    0  0  0  0  0  0  0  0  0  0  0  0
    8.3045  -14.5560    0.0000 C    0  0  0  0  0  0  0  0  0  0  0  0
    9.3861  -16.4295    0.0000 C    0  0  0  0  0  0  0  0  0  0  0  0
   14.7943  -14.5560    0.0000 C    0  0  0  0  0  0  0  0  0  0  0  0
    8.3045  -10.8092    0.0000 C    0  0  0  0  0  0  0  0  0  0  0  0
   15.8759  -12.6826    0.0000 N    0  0  0  0  0  0  0  0  0  0  0  0
    9.3861   -8.9357    0.0000 N    0  0  0  0  0  0  0  0  0  0  0  0
   18.0391  -12.6826    0.0000 O    0  0  0  0  0  0  0  0  0  0  0  0
    8.3045   -7.0623    0.0000 O    0  0  0  0  0  0  0  0  0  0  0  0
   12.6310   -3.3155    0.0000 C    0  0  0  0  0  0  0  0  0  0  0  0
   11.5494   -5.1889    0.0000 C    0  0  0  0  0  0  0  0  0  0  0  0
   11.5494   -1.4420    0.0000 C    0  0  0  0  0  0  0  0  0  0  0  0
    9.3861   -5.1889    0.0000 C    0  0  0  0  0  0  0  0  0  0  0  0
    9.3861   -1.4420    0.0000 C    0  0  0  0  0  0  0  0  0  0  0  0
    8.3045   -3.3155    0.0000 C    0  0  0  0  0  0  0  0  0  0  0  0
   21.2840   -7.0623    0.0000 C    0  0  0  0  0  0  0  0  0  0  0  0
   22.3656   -8.9358    0.0000 C    0  0  0  0  0  0  0  0  0  0  0  0
   19.1208   -7.0623    0.0000 C    0  0  0  0  0  0  0  0  0  0  0  0
   21.2840  -10.8092    0.0000 C    0  0  0  0  0  0  0  0  0  0  0  0
   18.0391   -8.9357    0.0000 C    0  0  0  0  0  0  0  0  0  0  0  0
   19.1208  -10.8092    0.0000 C    0  0  0  0  0  0  0  0  0  0  0  0
  1  2  1  0  0  0  0
  1  3  1  0  0  0  0
  1  4  1  0  0  0  0
  4  5  1  0  0  0  0
  6  7  1  0  0  0  0
  6  8  2  0  0  0  0
  7  9  2  0  0  0  0
  8 10  1  0  0  0  0
  9 11  1  0  0  0  0
 10 11  2  0  0  0  0
  1  6  1  0  0  0  0
  7 12  1  0  0  0  0
  8 13  1  0  0  0  0
 12 14  2  0  0  0  0
 13 15  2  0  0  0  0
 14 16  1  0  0  0  0
 15 17  1  0  0  0  0
 18 19  1  0  0  0  0
 18 20  2  0  0  0  0
 19 21  2  0  0  0  0
 20 22  1  0  0  0  0
 21 23  1  0  0  0  0
 22 23  2  0  0  0  0
 17 21  1  0  0  0  0
 24 25  1  0  0  0  0
 24 26  2  0  0  0  0
 25 27  2  0  0  0  0
 26 28  1  0  0  0  0
 27 29  1  0  0  0  0
 28 29  2  0  0  0  0
 16 29  1  0  0  0  0
M  END
> <NMREDATA_VERSION>
1.1

> <NMREDATA_LEVEL>
0

> <NMREDATA_SOLVENT>
CD2Cl2

> <NMREDATA_TEMPERATURE>
298

> <NMREDATA_FORMULA>
C20H18Cl3N3O2Rh

> <NMREDATA_SMILES>
ClC[Rh](N1=C(C=CC=C1/C=N/Oc1ccccc1)/C=N/Oc1ccccc1)(Cl)Cl

> <NMREDATA_ASSIGNMENT>
Rh1, 3654.00, 1

> <NMREDATA_1D_103Rh>
3654.00, L=Rh1

$$$$
