
  ACD/LABS02222414122D

 17 18  0  0  0  0  0  0  0  0  1 V2000
   12.4135   -8.9508    0.0000 C    0  0  0  0  0  0  0  0  0  0  0  0
   13.0785   -7.7990    0.0000 C    0  0  0  0  0  0  0  0  0  0  0  0
   13.3034   -9.9392    0.0000 C    0  0  0  0  0  0  0  0  0  0  0  0
   14.3794   -8.0756    0.0000 C    0  0  0  0  0  0  0  0  0  0  0  0
   14.5184   -9.3983    0.0000 C    0  0  0  0  0  0  0  0  0  0  0  0
   15.1834  -10.5501    0.0000 Rh   0  0  0  0  0  0  0  0  0  0  0  0
   16.5134  -10.5501    0.0000 C    0  0  0  0  0  0  0  0  0  0  0  0
   14.5184  -11.7019    0.0000 C    0  0  0  0  0  0  0  0  0  0  0  0
   17.8434  -10.5501    0.0000 O    0  0  0  0  0  0  0  0  0  0  0  0
   13.8534  -12.8537    0.0000 O    0  0  0  0  0  0  0  0  0  0  0  0
   15.8484   -9.3983    0.0000 C    0  0  0  0  0  0  0  0  0  0  0  0
   16.8221   -9.3983    0.0000 C    0  0  0  0  0  0  0  0  0  0  0  0
   16.8221   -8.0683    0.0000 C    0  0  0  0  0  0  0  0  0  0  0  0
   17.9739  -10.0633    0.0000 C    0  0  0  0  0  0  0  0  0  0  0  0
   17.9739   -7.4033    0.0000 C    0  0  0  0  0  0  0  0  0  0  0  0
   19.1257   -9.3983    0.0000 C    0  0  0  0  0  0  0  0  0  0  0  0
   19.1257   -8.0683    0.0000 C    0  0  0  0  0  0  0  0  0  0  0  0
  1  2  1  0  0  0  0
  1  3  2  0  0  0  0
  2  4  2  0  0  0  0
  3  5  1  0  0  0  0
  4  5  1  0  0  0  0
  5  6  1  0  0  0  0
  6  7  1  0  0  0  0
  6  8  1  0  0  0  0
  7  9  3  0  0  0  0
  8 10  3  0  0  0  0
  5 11  1  0  0  0  0
 12 13  1  0  0  0  0
 12 14  2  0  0  0  0
 13 15  2  0  0  0  0
 14 16  1  0  0  0  0
 15 17  1  0  0  0  0
 16 17  2  0  0  0  0
 11 12  1  0  0  0  0
M  END
> <NMREDATA_VERSION>
1.1

> <NMREDATA_LEVEL>
0

> <NMREDATA_SOLVENT>
C6D6

> <NMREDATA_TEMPERATURE>
298

> <NMREDATA_FORMULA>
C14H11O2Rh

> <NMREDATA_SMILES>
[O]#C[Rh](C1(C=CC=C1)Cc1ccccc1)C#[O]

> <NMREDATA_ASSIGNMENT>
Rh6, -1278.00, 6

> <NMREDATA_1D_103Rh>
-1278.00, L=Rh6

$$$$
