
  ACD/LABS04022410222D

 28 24  0  0  0  0  0  0  0  0  2 V2000
   16.1603  -18.4357    0.0000 Rh   0  0  0  0  0  0  0  0  0  0  0  0
   14.2591  -17.3381    0.0000 N    0  3  0  0  0  0  0  0  0  0  0  0
   16.1603  -16.2404    0.0000 N    0  3  0  0  0  0  0  0  0  0  0  0
   18.0615  -17.3381    0.0000 N    0  3  0  0  0  0  0  0  0  0  0  0
   16.1603  -20.6310    0.0000 N    0  0  0  0  0  0  0  0  0  0  0  0
   14.2591  -19.5334    0.0000 N    0  0  0  0  0  0  0  0  0  0  0  0
   18.0615  -19.5334    0.0000 N    0  0  0  0  0  0  0  0  0  0  0  0
   12.3579  -16.2404    0.0000 H    0  0  0  0  0  0  0  0  0  0  0  0
   13.1615  -19.2393    0.0000 H    0  0  0  0  0  0  0  0  0  0  0  0
   15.3568  -15.4369    0.0000 H    0  0  0  0  0  0  0  0  0  0  0  0
   13.9650  -16.2404    0.0000 H    0  0  0  0  0  0  0  0  0  0  0  0
   18.3556  -16.2404    0.0000 H    0  0  0  0  0  0  0  0  0  0  0  0
   16.1603  -14.0451    0.0000 H    0  0  0  0  0  0  0  0  0  0  0  0
   16.9638  -15.4369    0.0000 H    0  0  0  0  0  0  0  0  0  0  0  0
   19.1591  -19.2393    0.0000 H    0  0  0  0  0  0  0  0  0  0  0  0
   19.9627  -16.2404    0.0000 H    0  0  0  0  0  0  0  0  0  0  0  0
   18.3556  -20.6310    0.0000 H    0  0  0  0  0  0  0  0  0  0  0  0
   13.9650  -20.6310    0.0000 H    0  0  0  0  0  0  0  0  0  0  0  0
   16.1603  -22.8263    0.0000 H    0  0  0  0  0  0  0  0  0  0  0  0
   15.3568  -21.4346    0.0000 H    0  0  0  0  0  0  0  0  0  0  0  0
   13.1615  -17.6322    0.0000 H    0  0  0  0  0  0  0  0  0  0  0  0
   12.3579  -20.6310    0.0000 H    0  0  0  0  0  0  0  0  0  0  0  0
   19.1591  -17.6322    0.0000 H    0  0  0  0  0  0  0  0  0  0  0  0
   16.9638  -21.4346    0.0000 H    0  0  0  0  0  0  0  0  0  0  0  0
   19.9627  -20.6310    0.0000 H    0  0  0  0  0  0  0  0  0  0  0  0
   23.8599  -13.4442    0.0000 Cl   0  5  0  0  0  0  0  0  0  0  0  0
   23.6355  -14.4858    0.0000 Cl   0  5  0  0  0  0  0  0  0  0  0  0
   24.7412  -14.2615    0.0000 Cl   0  5  0  0  0  0  0  0  0  0  0  0
  1  2  1  0  0  0  0
  1  3  1  0  0  0  0
  1  4  1  0  0  0  0
  1  5  1  0  0  0  0
  1  6  1  0  0  0  0
  1  7  1  0  0  0  0
  2  8  1  0  0  0  0
  2  9  1  0  0  0  0
  2 10  1  0  0  0  0
  3 11  1  0  0  0  0
  3 12  1  0  0  0  0
  3 13  1  0  0  0  0
  4 14  1  0  0  0  0
  4 15  1  0  0  0  0
  4 16  1  0  0  0  0
  5 17  1  0  0  0  0
  5 18  1  0  0  0  0
  5 19  1  0  0  0  0
  6 20  1  0  0  0  0
  6 21  1  0  0  0  0
  6 22  1  0  0  0  0
  7 23  1  0  0  0  0
  7 24  1  0  0  0  0
  7 25  1  0  0  0  0
M  END
> <NMREDATA_VERSION>
1.1

> <NMREDATA_LEVEL>
0

> <NMREDATA_SOLVENT>
NH3 (aq)

> <NMREDATA_TEMPERATURE>
276

> <NMREDATA_FORMULA>
Cl3H27N6Rh

> <NMREDATA_SMILES>
[NH4][Rh]([NH4])([NH4])([NH4])([NH4])[NH4].Cl.Cl.Cl

> <NMREDATA_ASSIGNMENT>
Rh1, 4766.00, 1

> <NMREDATA_1D_103Rh>
4766.00, L=Rh1

$$$$
