
  ACD/LABS02122413512D

 27 29  0  0  0  0  0  0  0  0  2 V2000
   18.2207   -7.6363    0.0000 C    0  0  0  0  0  0  0  0  0  0  0  0
   18.8857   -6.4845    0.0000 C    0  0  0  0  0  0  0  0  0  0  0  0
   18.8857   -8.7882    0.0000 C    0  0  0  0  0  0  0  0  0  0  0  0
   20.2157   -6.4845    0.0000 C    0  0  0  0  0  0  0  0  0  0  0  0
   20.2157   -8.7882    0.0000 C    0  0  0  0  0  0  0  0  0  0  0  0
   20.8807   -7.6363    0.0000 C    0  0  0  0  0  0  0  0  0  0  0  0
   24.3362   -7.9450    0.0000 C    0  0  0  0  0  0  0  0  0  0  0  0
   24.3362   -9.2750    0.0000 C    0  0  0  0  0  0  0  0  0  0  0  0
   23.1844   -7.2800    0.0000 C    0  0  0  0  0  0  0  0  0  0  0  0
   23.1844   -9.9400    0.0000 C    0  0  0  0  0  0  0  0  0  0  0  0
   22.0326   -7.9450    0.0000 C    0  0  0  0  0  0  0  0  0  0  0  0
   22.0326   -9.2750    0.0000 C    0  0  0  0  0  0  0  0  0  0  0  0
   20.8807  -12.2436    0.0000 Rh   0  2  0  0  0  0  0  0  0  0  0  0
   21.5457  -11.0918    0.0000 C    0  0  0  0  0  0  0  0  0  0  0  0
   20.8807   -9.9400    0.0000 P    0  0  0  0  0  0  0  0  0  0  0  0
   19.7289  -10.6050    0.0000 N    0  0  0  0  0  0  0  0  0  0  0  0
   18.5771   -9.9400    0.0000 C    0  0  0  0  0  0  0  0  0  0  0  0
   17.4253  -10.6050    0.0000 C    0  0  0  0  0  0  0  0  0  0  0  0
   18.5771   -8.6100    0.0000 C    0  0  0  0  0  0  0  0  0  0  0  0
   16.2735   -9.9400    0.0000 C    0  0  0  0  0  0  0  0  0  0  0  0
   17.4253   -7.9450    0.0000 C    0  0  0  0  0  0  0  0  0  0  0  0
   16.2735   -8.6100    0.0000 C    0  0  0  0  0  0  0  0  0  0  0  0
   15.1217   -7.9450    0.0000 C    0  0  0  0  0  0  0  0  0  0  0  0
   19.5507  -12.2436    0.0000 C    0  0  0  0  0  0  0  0  0  0  0  0
   21.5457  -13.3954    0.0000 C    0  0  0  0  0  0  0  0  0  0  0  0
   18.2207  -12.2436    0.0000 O    0  0  0  0  0  0  0  0  0  0  0  0
   22.2107  -14.5472    0.0000 O    0  0  0  0  0  0  0  0  0  0  0  0
  1  2  1  0  0  0  0
  1  3  2  0  0  0  0
  2  4  2  0  0  0  0
  3  5  1  0  0  0  0
  4  6  1  0  0  0  0
  5  6  2  0  0  0  0
  7  8  1  0  0  0  0
  7  9  2  0  0  0  0
  8 10  2  0  0  0  0
  9 11  1  0  0  0  0
 10 12  1  0  0  0  0
 11 12  2  0  0  0  0
 13 14  1  0  0  0  0
 14 15  1  0  0  0  0
 15 16  2  0  0  0  0
 12 15  1  0  0  0  0
  5 15  1  0  0  0  0
 17 18  1  0  0  0  0
 17 19  2  0  0  0  0
 18 20  2  0  0  0  0
 19 21  1  0  0  0  0
 20 22  1  0  0  0  0
 21 22  2  0  0  0  0
 16 17  1  0  0  0  0
 22 23  1  0  0  0  0
 13 24  1  0  0  0  0
 13 25  1  0  0  0  0
 24 26  3  0  0  0  0
 25 27  3  0  0  0  0
M  END
> <NMREDATA_VERSION>
1.1

> <NMREDATA_LEVEL>
0

> <NMREDATA_SOLVENT>
C6D6

> <NMREDATA_TEMPERATURE>
295

> <NMREDATA_FORMULA>
C22H19NO2PRh

> <NMREDATA_SMILES>
[O]#C[Rh](CP(=Nc1ccc(cc1)C)(c1ccccc1)c1ccccc1)C#[O]

> <NMREDATA_ASSIGNMENT>
Rh13, -88.00, 13

> <NMREDATA_1D_103Rh>
-88.00, L=Rh13

$$$$
