
  ACD/LABS03292412582D

 61 69  0  0  0  0  0  0  0  0  1 V2000
   26.8484  -14.9823    0.0000 C    0  0  0  0  0  0  0  0  0  0  0  0
   25.8236  -15.8350    0.0000 C    0  0  0  0  0  0  0  0  0  0  0  0
   26.6132  -13.6690    0.0000 C    0  0  0  0  0  0  0  0  0  0  0  0
   24.5757  -15.3707    0.0000 C    0  0  0  0  0  0  0  0  0  0  0  0
   25.3730  -13.2086    0.0000 C    0  0  0  0  0  0  0  0  0  0  0  0
   24.3482  -14.0613    0.0000 C    0  0  0  0  0  0  0  0  0  0  0  0
   19.6474  -11.6135    0.0000 C    0  0  0  0  0  0  0  0  0  0  0  0
   20.7999  -10.9476    0.0000 C    0  0  0  0  0  0  0  0  0  0  0  0
   19.6469  -12.9446    0.0000 C    0  0  0  0  0  0  0  0  0  0  0  0
   21.9524  -11.6130    0.0000 C    0  0  0  0  0  0  0  0  0  0  0  0
   20.7994  -13.6100    0.0000 C    0  0  0  0  0  0  0  0  0  0  0  0
   21.9519  -12.9440    0.0000 C    0  0  0  0  0  0  0  0  0  0  0  0
   25.3341  -10.8820    0.0000 C    0  0  0  0  0  0  0  0  0  0  0  0
   24.4775   -9.8650    0.0000 C    0  0  0  0  0  0  0  0  0  0  0  0
   24.8776  -12.1338    0.0000 C    0  0  0  0  0  0  0  0  0  0  0  0
   23.1684  -10.0920    0.0000 C    0  0  0  0  0  0  0  0  0  0  0  0
   23.5612  -12.3572    0.0000 C    0  0  0  0  0  0  0  0  0  0  0  0
   22.7117  -11.3442    0.0000 C    0  0  0  0  0  0  0  0  0  0  0  0
   18.3033  -25.0633    0.0000 C    0  0  0  0  0  0  0  0  0  0  0  0
   19.3247  -25.9199    0.0000 C    0  0  0  0  0  0  0  0  0  0  0  0
   18.5446  -23.7589    0.0000 C    0  0  0  0  0  0  0  0  0  0  0  0
   20.5756  -25.4740    0.0000 C    0  0  0  0  0  0  0  0  0  0  0  0
   19.7923  -23.3011    0.0000 C    0  0  0  0  0  0  0  0  0  0  0  0
   20.8096  -24.1648    0.0000 C    0  0  0  0  0  0  0  0  0  0  0  0
   23.0975  -23.7142    0.0000 C    0  0  0  0  0  0  0  0  0  0  0  0
   23.9569  -22.7044    0.0000 C    0  0  0  0  0  0  0  0  0  0  0  0
   21.7880  -23.4806    0.0000 C    0  0  0  0  0  0  0  0  0  0  0  0
   23.5039  -21.4494    0.0000 C    0  0  0  0  0  0  0  0  0  0  0  0
   21.3426  -22.2300    0.0000 C    0  0  0  0  0  0  0  0  0  0  0  0
   22.1944  -21.2159    0.0000 C    0  0  0  0  0  0  0  0  0  0  0  0
   17.8682  -22.7843    0.0000 C    0  0  0  0  0  0  0  0  0  0  0  0
   16.5635  -22.5435    0.0000 C    0  0  0  0  0  0  0  0  0  0  0  0
   18.7248  -21.7629    0.0000 C    0  0  0  0  0  0  0  0  0  0  0  0
   16.1058  -21.2958    0.0000 C    0  0  0  0  0  0  0  0  0  0  0  0
   18.2790  -20.5120    0.0000 C    0  0  0  0  0  0  0  0  0  0  0  0
   16.9699  -20.2787    0.0000 C    0  0  0  0  0  0  0  0  0  0  0  0
   23.8075  -18.3686    0.0000 C    0  0  0  0  0  0  0  0  0  0  0  0
   23.3557  -19.6124    0.0000 C    0  0  0  0  0  0  0  0  0  0  0  0
   25.1169  -18.1411    0.0000 C    0  0  0  0  0  0  0  0  0  0  0  0
   24.2084  -20.6372    0.0000 C    0  0  0  0  0  0  0  0  0  0  0  0
   25.9691  -19.1657    0.0000 C    0  0  0  0  0  0  0  0  0  0  0  0
   25.5217  -20.4020    0.0000 C    0  0  0  0  0  0  0  0  0  0  0  0
   21.9386  -18.2001    0.0000 C    0  0  0  0  0  0  0  0  0  0  0  0
   20.6987  -17.7405    0.0000 C    0  0  0  0  0  0  0  0  0  0  0  0
   22.1655  -19.5093    0.0000 C    0  0  0  0  0  0  0  0  0  0  0  0
   19.6814  -18.5975    0.0000 C    0  0  0  0  0  0  0  0  0  0  0  0
   21.1407  -20.3619    0.0000 C    0  0  0  0  0  0  0  0  0  0  0  0
   19.9091  -19.9065    0.0000 C    0  0  0  0  0  0  0  0  0  0  0  0
   27.3592  -12.1636    0.0000 C    0  0  0  0  0  0  0  0  0  0  0  0
   27.5866  -13.4730    0.0000 C    0  0  0  0  0  0  0  0  0  0  0  0
   28.3840  -11.3109    0.0000 C    0  0  0  0  0  0  0  0  0  0  0  0
   28.8389  -13.9298    0.0000 C    0  0  0  0  0  0  0  0  0  0  0  0
   29.6244  -11.7709    0.0000 C    0  0  0  0  0  0  0  0  0  0  0  0
   29.8594  -13.0846    0.0000 C    0  0  0  0  0  0  0  0  0  0  0  0
   22.1138  -16.3357    0.0000 Rh   0  0  0  0  0  0  0  0  0  0  0  0
   21.2573  -15.3187    0.0000 Cl   0  0  0  0  0  0  0  0  0  0  0  0
   23.4293  -16.3272    0.0000 H    0  0  0  0  0  0  0  0  0  0  0  0
   20.7969  -16.5588    0.0000 H    0  0  0  0  0  0  0  0  0  0  0  0
   22.9505  -17.3513    0.0000 P    0  0  0  0  0  0  0  0  0  0  0  0
   20.0334  -21.9960    0.0000 P    0  0  0  0  0  0  0  0  0  0  0  0
   23.1044  -13.6095    0.0000 P    0  0  0  0  0  0  0  0  0  0  0  0
  1  2  1  0  0  0  0
  1  3  2  0  0  0  0
  2  4  2  0  0  0  0
  3  5  1  0  0  0  0
  4  6  1  0  0  0  0
  5  6  2  0  0  0  0
  7  8  1  0  0  0  0
  7  9  2  0  0  0  0
  8 10  2  0  0  0  0
  9 11  1  0  0  0  0
 10 12  1  0  0  0  0
 11 12  2  0  0  0  0
 13 14  1  0  0  0  0
 13 15  2  0  0  0  0
 14 16  2  0  0  0  0
 15 17  1  0  0  0  0
 16 18  1  0  0  0  0
 17 18  2  0  0  0  0
 19 20  1  0  0  0  0
 19 21  2  0  0  0  0
 20 22  2  0  0  0  0
 21 23  1  0  0  0  0
 22 24  1  0  0  0  0
 23 24  2  0  0  0  0
 25 26  1  0  0  0  0
 25 27  2  0  0  0  0
 26 28  2  0  0  0  0
 27 29  1  0  0  0  0
 28 30  1  0  0  0  0
 29 30  2  0  0  0  0
 31 32  1  0  0  0  0
 31 33  2  0  0  0  0
 32 34  2  0  0  0  0
 33 35  1  0  0  0  0
 34 36  1  0  0  0  0
 35 36  2  0  0  0  0
 37 38  1  0  0  0  0
 37 39  2  0  0  0  0
 38 40  2  0  0  0  0
 39 41  1  0  0  0  0
 40 42  1  0  0  0  0
 41 42  2  0  0  0  0
 43 44  1  0  0  0  0
 43 45  2  0  0  0  0
 44 46  2  0  0  0  0
 45 47  1  0  0  0  0
 46 48  1  0  0  0  0
 47 48  2  0  0  0  0
 49 50  1  0  0  0  0
 49 51  2  0  0  0  0
 50 52  2  0  0  0  0
 51 53  1  0  0  0  0
 52 54  1  0  0  0  0
 53 54  2  0  0  0  0
 55 56  1  0  0  0  0
 55 57  1  0  0  0  0
 55 58  1  0  0  0  0
 55 59  1  0  0  0  0
 55 60  1  0  0  0  0
 55 61  1  0  0  0  0
 50 59  1  0  0  0  0
 43 59  1  0  0  0  0
 37 59  1  0  0  0  0
 33 60  1  0  0  0  0
 29 60  1  0  0  0  0
 23 60  1  0  0  0  0
 17 61  1  0  0  0  0
 12 61  1  0  0  0  0
  6 61  1  0  0  0  0
M  END
> <NMREDATA_VERSION>
1.1

> <NMREDATA_LEVEL>
0

> <NMREDATA_SOLVENT>
DCCl3

> <NMREDATA_TEMPERATURE>
247

> <NMREDATA_FORMULA>
C54H50ClP3Rh

> <NMREDATA_SMILES>
Cl[RhH2](P(c1ccccc1)(c1ccccc1)c1ccccc1)(P(c1ccccc1)(c1ccccc1)c1ccccc1)P(c1ccccc1)(c1ccccc1)c1ccccc1

> <NMREDATA_ASSIGNMENT>
Rh55, 57.00, 55

> <NMREDATA_1D_103Rh>
57.00, L=Rh55

$$$$
