
  ACD/LABS03092411232D

 52 58  0  0  0  0  0  0  0  0  1 V2000
   12.9486  -16.8550    0.0000 C    0  0  0  0  0  0  0  0  0  0  0  0
   11.6186  -16.8550    0.0000 Rh   0  0  0  0  0  0  0  0  0  0  0  0
   11.6186  -15.5250    0.0000 H    0  0  0  0  0  0  0  0  0  0  0  0
   11.6186  -18.1850    0.0000 C    0  0  0  0  0  0  0  0  0  0  0  0
   11.6186  -19.5150    0.0000 O    0  0  0  0  0  0  0  0  0  0  0  0
   10.2886  -16.8550    0.0000 C    0  0  0  0  0  0  0  0  0  0  0  0
    8.9586  -16.8550    0.0000 O    0  0  0  0  0  0  0  0  0  0  0  0
   13.3801  -18.4277    0.0000 C    0  0  0  0  0  0  0  0  0  0  0  0
   13.3481  -15.9600    0.0000 C    0  0  0  0  0  0  0  0  0  0  0  0
   14.0852  -17.6105    0.0000 C    0  0  0  0  0  0  0  0  0  0  0  0
   16.0954  -13.7082    0.0000 C    0  0  0  0  0  0  0  0  0  0  0  0
   16.0954  -15.0382    0.0000 C    0  0  0  0  0  0  0  0  0  0  0  0
   14.9436  -13.0432    0.0000 O    0  0  0  0  0  0  0  0  0  0  0  0
   14.9436  -15.7032    0.0000 C    0  0  0  0  0  0  0  0  0  0  0  0
   13.7918  -13.7082    0.0000 C    0  0  0  0  0  0  0  0  0  0  0  0
   13.7918  -15.0382    0.0000 C    0  0  0  0  0  0  0  0  0  0  0  0
   17.2472  -13.0432    0.0000 C    0  0  0  0  0  0  0  0  0  0  0  0
   18.3990  -13.7082    0.0000 C    0  0  0  0  0  0  0  0  0  0  0  0
   17.2472  -15.7032    0.0000 C    0  0  0  0  0  0  0  0  0  0  0  0
   18.3990  -15.0382    0.0000 C    0  0  0  0  0  0  0  0  0  0  0  0
   12.6400  -13.0432    0.0000 C    0  0  0  0  0  0  0  0  0  0  0  0
   11.4882  -13.7082    0.0000 C    0  0  0  0  0  0  0  0  0  0  0  0
   12.6400  -15.7032    0.0000 C    0  0  0  0  0  0  0  0  0  0  0  0
   11.4882  -15.0382    0.0000 C    0  0  0  0  0  0  0  0  0  0  0  0
   12.6400  -11.7132    0.0000 P    0  0  0  0  0  0  0  0  0  0  0  0
   17.2472  -11.7132    0.0000 P    0  0  0  0  0  0  0  0  0  0  0  0
   14.9436  -10.3832    0.0000 C    0  0  0  0  0  0  0  0  0  0  0  0
   14.9436   -9.0532    0.0000 C    0  0  0  0  0  0  0  0  0  0  0  0
   16.0954  -11.0482    0.0000 C    0  0  0  0  0  0  0  0  0  0  0  0
   16.0954   -8.3882    0.0000 C    0  0  0  0  0  0  0  0  0  0  0  0
   17.2472  -10.3832    0.0000 C    0  0  0  0  0  0  0  0  0  0  0  0
   17.2472   -9.0532    0.0000 C    0  0  0  0  0  0  0  0  0  0  0  0
   11.4882  -11.0482    0.0000 C    0  0  0  0  0  0  0  0  0  0  0  0
   10.3363  -11.7132    0.0000 C    0  0  0  0  0  0  0  0  0  0  0  0
   11.4882   -9.7182    0.0000 C    0  0  0  0  0  0  0  0  0  0  0  0
    9.1845  -11.0482    0.0000 C    0  0  0  0  0  0  0  0  0  0  0  0
   10.3363   -9.0532    0.0000 C    0  0  0  0  0  0  0  0  0  0  0  0
    9.1845   -9.7182    0.0000 C    0  0  0  0  0  0  0  0  0  0  0  0
   18.3990  -11.0482    0.0000 C    0  0  0  0  0  0  0  0  0  0  0  0
   18.3990   -9.7182    0.0000 C    0  0  0  0  0  0  0  0  0  0  0  0
   19.5509  -11.7132    0.0000 C    0  0  0  0  0  0  0  0  0  0  0  0
   19.5509   -9.0532    0.0000 C    0  0  0  0  0  0  0  0  0  0  0  0
   20.7027  -11.0482    0.0000 C    0  0  0  0  0  0  0  0  0  0  0  0
   20.7027   -9.7182    0.0000 C    0  0  0  0  0  0  0  0  0  0  0  0
   16.0954  -11.0482    0.0000 C    0  0  0  0  0  0  0  0  0  0  0  0
   14.9436  -11.7132    0.0000 C    0  0  0  0  0  0  0  0  0  0  0  0
   16.0954   -9.7182    0.0000 C    0  0  0  0  0  0  0  0  0  0  0  0
   13.7918  -11.0482    0.0000 C    0  0  0  0  0  0  0  0  0  0  0  0
   14.9436   -9.0532    0.0000 C    0  0  0  0  0  0  0  0  0  0  0  0
   13.7918   -9.7182    0.0000 C    0  0  0  0  0  0  0  0  0  0  0  0
   15.6086  -16.8550    0.0000 C    0  0  0  0  0  0  0  0  0  0  0  0
   14.6941  -16.6971    0.0000 C    0  0  0  0  0  0  0  0  0  0  0  0
  2  3  1  0  0  0  0
  2  4  1  0  0  0  0
  4  5  3  0  0  0  0
  2  6  1  0  0  0  0
  6  7  3  0  0  0  0
  1  2  1  0  0  0  0
  1  8  1  0  0  0  0
  1  9  1  0  0  0  0
  1 10  1  0  0  0  0
 11 13  1  0  0  0  0
 12 14  1  0  0  0  0
 13 15  1  0  0  0  0
 14 16  1  0  0  0  0
 11 17  1  0  0  0  0
 11 12  2  0  0  0  0
 17 18  2  0  0  0  0
 12 19  1  0  0  0  0
 18 20  1  0  0  0  0
 19 20  2  0  0  0  0
 15 21  1  0  0  0  0
 15 16  2  0  0  0  0
 21 22  2  0  0  0  0
 16 23  1  0  0  0  0
 22 24  1  0  0  0  0
 23 24  2  0  0  0  0
 21 25  1  0  0  0  0
 17 26  1  0  0  0  0
 27 28  1  0  0  0  0
 27 29  2  0  0  0  0
 28 30  2  0  0  0  0
 29 31  1  0  0  0  0
 30 32  1  0  0  0  0
 31 32  2  0  0  0  0
 25 27  1  0  0  0  0
 33 34  1  0  0  0  0
 33 35  2  0  0  0  0
 34 36  2  0  0  0  0
 35 37  1  0  0  0  0
 36 38  1  0  0  0  0
 37 38  2  0  0  0  0
 25 33  1  0  0  0  0
 39 40  1  0  0  0  0
 39 41  2  0  0  0  0
 40 42  2  0  0  0  0
 41 43  1  0  0  0  0
 42 44  1  0  0  0  0
 43 44  2  0  0  0  0
 26 39  1  0  0  0  0
 45 46  1  0  0  0  0
 45 47  2  0  0  0  0
 46 48  2  0  0  0  0
 47 49  1  0  0  0  0
 48 50  1  0  0  0  0
 49 50  2  0  0  0  0
 26 45  1  0  0  0  0
 14 51  1  0  0  0  0
 14 52  1  0  0  0  0
 10 52  3  0  0  0  0
M  END
> <NMREDATA_VERSION>
1.1

> <NMREDATA_LEVEL>
0

> <NMREDATA_SOLVENT>
C6D6

> <NMREDATA_TEMPERATURE>
298

> <NMREDATA_FORMULA>
C45H36O3P2Rh

> <NMREDATA_SMILES>
[O]#C[RhH](C(C#CC1(C)c2cccc(c2Oc2c1cccc2P(c1ccccc1)c1ccccc1)P(c1ccccc1)c1ccccc1)(C)C)C#[O]

> <NMREDATA_ASSIGNMENT>
Rh2, -821.00, 2

> <NMREDATA_1D_103Rh>
-821.00, L=Rh2

$$$$
