
  ACD/LABS04042409582D

 13 12  0  0  0  0  0  0  0  0  1 V2000
   15.7517  -10.3516    0.0000 Rh   0  0  0  0  0  0  0  0  0  0  0  0
   14.3095   -9.2940    0.0000 I    0  0  0  0  0  0  0  0  0  0  0  0
   16.0241   -8.7972    0.0000 I    0  0  0  0  0  0  0  0  0  0  0  0
   16.4728  -11.7617    0.0000 I    0  0  0  0  0  0  0  0  0  0  0  0
   17.2740   -9.2619    0.0000 Te   0  0  0  0  0  0  0  0  0  0  0  0
   17.7547  -10.4637    0.0000 Te   0  0  0  0  0  0  0  0  0  0  0  0
   14.4858  -11.5213    0.0000 Te   0  0  0  0  0  0  0  0  0  0  0  0
   17.1458   -8.1563    0.0000 C    0  0  0  0  0  0  0  0  0  0  0  0
   18.0271   -8.8934    0.0000 C    0  0  0  0  0  0  0  0  0  0  0  0
   18.9886  -10.0631    0.0000 C    0  0  0  0  0  0  0  0  0  0  0  0
   18.5880  -11.2970    0.0000 C    0  0  0  0  0  0  0  0  0  0  0  0
   14.6621  -12.4988    0.0000 C    0  0  0  0  0  0  0  0  0  0  0  0
   13.3961  -11.2970    0.0000 C    0  0  0  0  0  0  0  0  0  0  0  0
  1  2  1  0  0  0  0
  1  3  1  0  0  0  0
  1  4  1  0  0  0  0
  1  5  1  0  0  0  0
  1  6  1  0  0  0  0
  1  7  1  0  0  0  0
  5  8  1  0  0  0  0
  5  9  1  0  0  0  0
  6 10  1  0  0  0  0
  6 11  1  0  0  0  0
  7 12  1  0  0  0  0
  7 13  1  0  0  0  0
M  END
> <NMREDATA_VERSION>
1.1

> <NMREDATA_LEVEL>
0

> <NMREDATA_SOLVENT>
CD2Cl2

> <NMREDATA_FORMULA>
C6H21I3RhTe3

> <NMREDATA_SMILES>
C[TeH]([Rh]([TeH](C)C)([TeH](C)C)(I)(I)I)C

> <NMREDATA_ASSIGNMENT>
Rh1, 1352.00, 1

> <NMREDATA_1D_103Rh>
1352.00, L=Rh1

$$$$
