
  ACD/LABS03092411062D

 79 90  0  0  0  0  0  0  0  0  2 V2000
   10.9372  -15.4793    0.0000 C    0  0  0  0  0  0  0  0  0  0  0  0
    9.7854  -14.8143    0.0000 C    0  0  0  0  0  0  0  0  0  0  0  0
   12.0891  -14.8143    0.0000 C    0  0  0  0  0  0  0  0  0  0  0  0
    9.7854  -13.4843    0.0000 C    0  0  0  0  0  0  0  0  0  0  0  0
   12.0891  -13.4843    0.0000 C    0  0  0  0  0  0  0  0  0  0  0  0
   10.9372  -12.8193    0.0000 C    0  0  0  0  0  0  0  0  0  0  0  0
   12.9322  -10.3375    0.0000 C    0  0  0  0  0  0  0  0  0  0  0  0
   14.2622  -10.3375    0.0000 C    0  0  0  0  0  0  0  0  0  0  0  0
   12.2672  -11.4893    0.0000 C    0  0  0  0  0  0  0  0  0  0  0  0
   14.9272  -11.4893    0.0000 C    0  0  0  0  0  0  0  0  0  0  0  0
   12.9322  -12.6411    0.0000 C    0  0  0  0  0  0  0  0  0  0  0  0
   14.2622  -12.6411    0.0000 C    0  0  0  0  0  0  0  0  0  0  0  0
    9.6072  -11.4893    0.0000 C    0  0  0  0  0  0  0  0  0  0  0  0
    8.9422  -12.6411    0.0000 C    0  0  0  0  0  0  0  0  0  0  0  0
    8.9422  -10.3375    0.0000 C    0  0  0  0  0  0  0  0  0  0  0  0
    7.6122  -12.6411    0.0000 C    0  0  0  0  0  0  0  0  0  0  0  0
    7.6122  -10.3375    0.0000 C    0  0  0  0  0  0  0  0  0  0  0  0
    6.9472  -11.4893    0.0000 C    0  0  0  0  0  0  0  0  0  0  0  0
   12.0891   -2.8443    0.0000 C    0  0  0  0  0  0  0  0  0  0  0  0
   12.0891   -4.1743    0.0000 C    0  0  0  0  0  0  0  0  0  0  0  0
   10.9372   -2.1793    0.0000 C    0  0  0  0  0  0  0  0  0  0  0  0
   10.9372   -4.8393    0.0000 C    0  0  0  0  0  0  0  0  0  0  0  0
    9.7854   -2.8443    0.0000 C    0  0  0  0  0  0  0  0  0  0  0  0
    9.7854   -4.1743    0.0000 C    0  0  0  0  0  0  0  0  0  0  0  0
    7.6122   -5.0175    0.0000 C    0  0  0  0  0  0  0  0  0  0  0  0
    8.2772   -6.1693    0.0000 C    0  0  0  0  0  0  0  0  0  0  0  0
    6.2822   -5.0175    0.0000 C    0  0  0  0  0  0  0  0  0  0  0  0
    7.6122   -7.3211    0.0000 C    0  0  0  0  0  0  0  0  0  0  0  0
    5.6172   -6.1693    0.0000 C    0  0  0  0  0  0  0  0  0  0  0  0
    6.2822   -7.3211    0.0000 C    0  0  0  0  0  0  0  0  0  0  0  0
   14.2622   -7.3211    0.0000 C    0  0  0  0  0  0  0  0  0  0  0  0
   13.5972   -6.1693    0.0000 C    0  0  0  0  0  0  0  0  0  0  0  0
   15.5922   -7.3211    0.0000 C    0  0  0  0  0  0  0  0  0  0  0  0
   14.2622   -5.0175    0.0000 C    0  0  0  0  0  0  0  0  0  0  0  0
   16.2572   -6.1693    0.0000 C    0  0  0  0  0  0  0  0  0  0  0  0
   15.5922   -5.0175    0.0000 C    0  0  0  0  0  0  0  0  0  0  0  0
   12.2672  -10.1593    0.0000 P    0  0  0  0  0  0  0  0  0  0  0  0
   12.2672   -8.8293    0.0000 C    0  0  0  0  0  0  0  0  0  0  0  0
   11.1154   -8.1643    0.0000 C    0  0  0  0  0  0  0  0  0  0  0  0
   13.4191   -8.1643    0.0000 C    0  0  0  0  0  0  0  0  0  0  0  0
   11.1154   -6.8343    0.0000 C    0  0  0  0  0  0  0  0  0  0  0  0
   13.4191   -6.8343    0.0000 C    0  0  0  0  0  0  0  0  0  0  0  0
   12.2672   -6.1693    0.0000 C    0  0  0  0  0  0  0  0  0  0  0  0
   12.2672  -12.8193    0.0000 C    0  0  0  0  0  0  0  0  0  0  0  0
   13.4191  -13.4843    0.0000 C    0  0  0  0  0  0  0  0  0  0  0  0
   11.1154  -13.4843    0.0000 C    0  0  0  0  0  0  0  0  0  0  0  0
   13.4191  -14.8143    0.0000 C    0  0  0  0  0  0  0  0  0  0  0  0
   11.1154  -14.8143    0.0000 C    0  0  0  0  0  0  0  0  0  0  0  0
   12.2672  -15.4793    0.0000 C    0  0  0  0  0  0  0  0  0  0  0  0
   16.2572  -10.1593    0.0000 C    0  0  0  0  0  0  0  0  0  0  0  0
   15.5922  -11.3111    0.0000 C    0  0  0  0  0  0  0  0  0  0  0  0
   15.5922   -9.0075    0.0000 C    0  0  0  0  0  0  0  0  0  0  0  0
   14.2622  -11.3111    0.0000 C    0  0  0  0  0  0  0  0  0  0  0  0
   14.2622   -9.0075    0.0000 C    0  0  0  0  0  0  0  0  0  0  0  0
   13.5972  -10.1593    0.0000 C    0  0  0  0  0  0  0  0  0  0  0  0
   10.9372  -10.1593    0.0000 Rh   0  0  0  0  0  0  0  0  0  0  0  0
   10.9372   -8.8293    0.0000 C    0  0  0  0  0  0  0  0  0  0  0  0
   10.9372   -7.4993    0.0000 N    0  3  0  0  0  0  0  0  0  0  0  0
    9.6072  -10.1593    0.0000 P    0  0  0  0  0  0  0  0  0  0  0  0
    9.6072  -12.8193    0.0000 C    0  0  0  0  0  0  0  0  0  0  0  0
   10.7591  -13.4843    0.0000 C    0  0  0  0  0  0  0  0  0  0  0  0
    8.4554  -13.4843    0.0000 C    0  0  0  0  0  0  0  0  0  0  0  0
   10.7591  -14.8143    0.0000 C    0  0  0  0  0  0  0  0  0  0  0  0
    8.4554  -14.8143    0.0000 C    0  0  0  0  0  0  0  0  0  0  0  0
    9.6072  -15.4793    0.0000 C    0  0  0  0  0  0  0  0  0  0  0  0
    9.6072   -8.8293    0.0000 C    0  0  0  0  0  0  0  0  0  0  0  0
    8.4554   -8.1643    0.0000 C    0  0  0  0  0  0  0  0  0  0  0  0
   10.7591   -8.1643    0.0000 C    0  0  0  0  0  0  0  0  0  0  0  0
    8.4554   -6.8343    0.0000 C    0  0  0  0  0  0  0  0  0  0  0  0
   10.7591   -6.8343    0.0000 C    0  0  0  0  0  0  0  0  0  0  0  0
    9.6072   -6.1693    0.0000 C    0  0  0  0  0  0  0  0  0  0  0  0
    5.6172  -10.1593    0.0000 C    0  0  0  0  0  0  0  0  0  0  0  0
    6.2822   -9.0075    0.0000 C    0  0  0  0  0  0  0  0  0  0  0  0
    6.2822  -11.3111    0.0000 C    0  0  0  0  0  0  0  0  0  0  0  0
    7.6122   -9.0075    0.0000 C    0  0  0  0  0  0  0  0  0  0  0  0
    7.6122  -11.3111    0.0000 C    0  0  0  0  0  0  0  0  0  0  0  0
    8.2772  -10.1593    0.0000 C    0  0  0  0  0  0  0  0  0  0  0  0
   10.9372   -6.1693    0.0000 B    0  0  0  0  0  0  0  0  0  0  0  0
   10.9372  -11.4893    0.0000 P    0  0  0  0  0  0  0  0  0  0  0  0
  1  2  1  0  0  0  0
  1  3  2  0  0  0  0
  2  4  2  0  0  0  0
  3  5  1  0  0  0  0
  4  6  1  0  0  0  0
  5  6  2  0  0  0  0
  7  8  1  0  0  0  0
  7  9  2  0  0  0  0
  8 10  2  0  0  0  0
  9 11  1  0  0  0  0
 10 12  1  0  0  0  0
 11 12  2  0  0  0  0
 13 14  1  0  0  0  0
 13 15  2  0  0  0  0
 14 16  2  0  0  0  0
 15 17  1  0  0  0  0
 16 18  1  0  0  0  0
 17 18  2  0  0  0  0
 19 20  1  0  0  0  0
 19 21  2  0  0  0  0
 20 22  2  0  0  0  0
 21 23  1  0  0  0  0
 22 24  1  0  0  0  0
 23 24  2  0  0  0  0
 25 26  1  0  0  0  0
 25 27  2  0  0  0  0
 26 28  2  0  0  0  0
 27 29  1  0  0  0  0
 28 30  1  0  0  0  0
 29 30  2  0  0  0  0
 31 32  1  0  0  0  0
 31 33  2  0  0  0  0
 32 34  2  0  0  0  0
 33 35  1  0  0  0  0
 34 36  1  0  0  0  0
 35 36  2  0  0  0  0
 38 39  1  0  0  0  0
 38 40  2  0  0  0  0
 39 41  2  0  0  0  0
 40 42  1  0  0  0  0
 41 43  1  0  0  0  0
 42 43  2  0  0  0  0
 37 38  1  0  0  0  0
 44 45  1  0  0  0  0
 44 46  2  0  0  0  0
 45 47  2  0  0  0  0
 46 48  1  0  0  0  0
 47 49  1  0  0  0  0
 48 49  2  0  0  0  0
 37 44  1  0  0  0  0
 50 51  1  0  0  0  0
 50 52  2  0  0  0  0
 51 53  2  0  0  0  0
 52 54  1  0  0  0  0
 53 55  1  0  0  0  0
 54 55  2  0  0  0  0
 37 55  1  0  0  0  0
 57 58  3  0  0  0  0
 56 57  1  0  0  0  0
 56 59  1  0  0  0  0
 60 61  1  0  0  0  0
 60 62  2  0  0  0  0
 61 63  2  0  0  0  0
 62 64  1  0  0  0  0
 63 65  1  0  0  0  0
 64 65  2  0  0  0  0
 59 60  1  0  0  0  0
 66 67  1  0  0  0  0
 66 68  2  0  0  0  0
 67 69  2  0  0  0  0
 68 70  1  0  0  0  0
 69 71  1  0  0  0  0
 70 71  2  0  0  0  0
 59 66  1  0  0  0  0
 72 73  1  0  0  0  0
 72 74  2  0  0  0  0
 73 75  2  0  0  0  0
 74 76  1  0  0  0  0
 75 77  1  0  0  0  0
 76 77  2  0  0  0  0
 59 77  1  0  0  0  0
 37 56  1  0  0  0  0
 58 78  1  0  0  0  0
 32 78  1  0  0  0  0
 26 78  1  0  0  0  0
 22 78  1  0  0  0  0
 56 79  1  0  0  0  0
 13 79  1  0  0  0  0
  9 79  1  0  0  0  0
  6 79  1  0  0  0  0
M  END
> <NMREDATA_VERSION>
1.1

> <NMREDATA_LEVEL>
0

> <NMREDATA_SOLVENT>
DCCl3

> <NMREDATA_TEMPERATURE>
300

> <NMREDATA_FORMULA>
C73H64BNP3Rh

> <NMREDATA_SMILES>
c1ccc(cc1)[B](c1ccccc1)(c1ccccc1)N#C[Rh](P(c1ccccc1)(c1ccccc1)c1ccccc1)(P(c1ccccc1)(c1ccccc1)c1ccccc1)P(c1ccccc1)(c1ccccc1)c1ccccc1

> <NMREDATA_ASSIGNMENT>
Rh56, -405.00, 56

> <NMREDATA_1D_103Rh>
-405.00, L=Rh56

$$$$
