
  ACD/LABS03242411362D

 41 44  0  0  0  0  0  0  0  0  7 V2000
   18.3542  -11.3272    0.0000 N    0  0  0  0  0  0  0  0  0  0  0  0
   18.3542  -12.6572    0.0000 C    0  0  0  0  0  0  0  0  0  0  0  0
   17.2024  -10.6622    0.0000 C    0  0  0  0  0  0  0  0  0  0  0  0
   17.2024  -13.3222    0.0000 C    0  0  0  0  0  0  0  0  0  0  0  0
   16.0506  -11.3272    0.0000 C    0  0  0  0  0  0  0  0  0  0  0  0
   16.0506  -12.6572    0.0000 C    0  0  0  0  0  0  0  0  0  0  0  0
   19.5061  -13.3222    0.0000 C    0  0  0  0  0  0  0  0  0  0  0  0
   20.6579  -12.6572    0.0000 C    0  0  0  0  0  0  0  0  0  0  0  0
   19.5061  -14.6522    0.0000 C    0  0  0  0  0  0  0  0  0  0  0  0
   21.8097  -13.3222    0.0000 C    0  0  0  0  0  0  0  0  0  0  0  0
   20.6579  -15.3172    0.0000 N    0  0  0  0  0  0  0  0  0  0  0  0
   21.8097  -14.6522    0.0000 C    0  0  0  0  0  0  0  0  0  0  0  0
   17.2024  -14.6522    0.0000 C    0  0  0  0  0  0  0  0  0  0  0  0
   18.3542  -15.3172    0.0000 C    0  0  0  0  0  0  0  0  0  0  0  0
   16.0506  -15.3172    0.0000 C    0  0  0  0  0  0  0  0  0  0  0  0
   18.3542  -16.6472    0.0000 C    0  0  0  0  0  0  0  0  0  0  0  0
   16.0506  -16.6472    0.0000 N    0  0  0  0  0  0  0  0  0  0  0  0
   17.2024  -17.3122    0.0000 C    0  0  0  0  0  0  0  0  0  0  0  0
   14.8988  -13.3222    0.0000 C    0  0  0  0  0  0  0  0  0  0  0  0
   14.8988  -14.6522    0.0000 C    0  0  0  0  0  0  0  0  0  0  0  0
   13.7470  -12.6572    0.0000 C    0  0  0  0  0  0  0  0  0  0  0  0
   13.7470  -15.3172    0.0000 C    0  0  0  0  0  0  0  0  0  0  0  0
   12.5952  -13.3222    0.0000 C    0  0  0  0  0  0  0  0  0  0  0  0
   12.5952  -14.6522    0.0000 C    0  0  0  0  0  0  0  0  0  0  0  0
   11.4434  -15.3172    0.0000 C    0  0  0  0  0  0  0  0  0  0  0  0
   10.7784  -14.1654    0.0000 C    0  0  0  0  0  0  0  0  0  0  0  0
   12.1084  -16.4690    0.0000 C    0  0  0  0  0  0  0  0  0  0  0  0
   10.2915  -15.9822    0.0000 C    0  0  0  0  0  0  0  0  0  0  0  0
   19.5061  -10.6622    0.0000 Rh   0  0  0  0  0  0  0  0  0  0  0  0
   18.8410   -9.5104    0.0000 Br   0  0  0  0  0  0  0  0  0  0  0  0
   20.1710  -11.8140    0.0000 Br   0  0  0  0  0  0  0  0  0  0  0  0
   20.6579   -9.9972    0.0000 C    0  0  0  0  0  0  0  0  0  0  0  0
   20.6579   -8.6672    0.0000 C    0  0  0  0  0  0  0  0  0  0  0  0
   21.8097   -8.0022    0.0000 C    0  0  0  0  0  0  0  0  0  0  0  0
   21.8097   -6.6722    0.0000 C    0  0  0  0  0  0  0  0  0  0  0  0
   22.9615   -6.0072    0.0000 C    0  0  0  0  0  0  0  0  0  0  0  0
   22.9615   -4.6772    0.0000 C    0  0  0  0  0  0  0  0  0  0  0  0
   24.1133   -4.0122    0.0000 C    0  0  0  0  0  0  0  0  0  0  0  0
   24.1133   -2.6822    0.0000 C    0  0  0  0  0  0  0  0  0  0  0  0
   25.2651   -2.0172    0.0000 C    0  0  0  0  0  0  0  0  0  0  0  0
   25.2651   -0.6872    0.0000 C    0  0  0  0  0  0  0  0  0  0  0  0
  1  2  1  0  0  0  0
  1  3  2  0  0  0  0
  2  4  2  0  0  0  0
  3  5  1  0  0  0  0
  4  6  1  0  0  0  0
  5  6  2  0  0  0  0
  7  8  1  0  0  0  0
  7  9  2  0  0  0  0
  8 10  2  0  0  0  0
  9 11  1  0  0  0  0
 10 12  1  0  0  0  0
 11 12  2  0  0  0  0
  2  7  1  0  0  0  0
 13 14  1  0  0  0  0
 13 15  2  0  0  0  0
 14 16  2  0  0  0  0
 15 17  1  0  0  0  0
 16 18  1  0  0  0  0
 17 18  2  0  0  0  0
  4 13  1  0  0  0  0
 19 20  1  0  0  0  0
 19 21  2  0  0  0  0
 20 22  2  0  0  0  0
 21 23  1  0  0  0  0
 22 24  1  0  0  0  0
 23 24  2  0  0  0  0
  6 19  1  0  0  0  0
 25 26  1  0  0  0  0
 25 27  1  0  0  0  0
 25 28  1  0  0  0  0
 24 25  1  0  0  0  0
 29 30  1  0  0  0  0
 29 31  1  0  0  0  0
  1 29  1  0  0  0  0
 29 32  1  0  0  0  0
 32 33  1  0  0  0  0
 33 34  1  0  0  0  0
 34 35  1  0  0  0  0
 35 36  1  0  0  0  0
 36 37  1  0  0  0  0
 37 38  1  0  0  0  0
 38 39  1  0  0  0  0
 39 40  1  0  0  0  0
 40 41  1  0  0  0  0
M  END
> <NMREDATA_VERSION>
1.1

> <NMREDATA_LEVEL>
0

> <NMREDATA_SOLVENT>
CD2Cl2

> <NMREDATA_TEMPERATURE>
298

> <NMREDATA_FORMULA>
C35H45Br2N3Rh

> <NMREDATA_SMILES>
CCCCCCCCCC[Rh](N1=CC=C(C(=C1c1cccnc1)c1cccnc1)c1ccc(cc1)C(C)(C)C)(Br)Br

> <NMREDATA_ASSIGNMENT>
Rh29, 3375.00, 29

> <NMREDATA_1D_103Rh>
3375.00, L=Rh29

$$$$
