
  ACD/LABS04252417172D

 23 23  0  0  0  0  0  0  0  0  3 V2000
   12.4668   -8.4447    0.0000 Rh   0  0  0  0  0  4  0  0  0  0  0  0
   15.2549   -7.0506    0.0000 Fe   0  0  0  0  0  0  0  0  0  0  0  0
   15.2710   -9.6946    0.0000 Fe   0  0  0  0  0  0  0  0  0  0  0  0
   11.1368   -7.4031    0.0000 C    0  0  0  0  0  0  0  0  0  0  0  0
   10.9284   -9.5664    0.0000 C    0  0  0  0  0  0  0  0  0  0  0  0
   15.3351   -4.7592    0.0000 C    0  0  0  0  0  0  0  0  0  0  0  0
   16.9855   -5.5283    0.0000 C    0  0  0  0  0  0  0  0  0  0  0  0
   17.9951   -6.4096    0.0000 C    0  0  0  0  0  0  0  0  0  0  0  0
   18.8604   -7.2910    0.0000 C    0  0  0  0  0  0  0  0  0  0  0  0
   18.1553   -9.5664    0.0000 C    0  0  0  0  0  0  0  0  0  0  0  0
   18.5399  -10.6560    0.0000 C    0  0  0  0  0  0  0  0  0  0  0  0
   17.3060  -11.4893    0.0000 C    0  0  0  0  0  0  0  0  0  0  0  0
   15.4152  -11.9380    0.0000 C    0  0  0  0  0  0  0  0  0  0  0  0
   16.1843   -3.3651    0.0000 O    0  3  0  0  0  0  0  0  0  0  0  0
   18.3476   -4.4547    0.0000 O    0  3  0  0  0  0  0  0  0  0  0  0
   19.7898   -5.4802    0.0000 O    0  3  0  0  0  0  0  0  0  0  0  0
   21.0396   -7.0987    0.0000 O    0  3  0  0  0  0  0  0  0  0  0  0
   20.3987   -9.1337    0.0000 O    0  3  0  0  0  0  0  0  0  0  0  0
   21.3922   -9.9670    0.0000 O    0  3  0  0  0  0  0  0  0  0  0  0
   18.8604  -11.4252    0.0000 O    0  3  0  0  0  0  0  0  0  0  0  0
   16.8253  -12.5469    0.0000 O    0  3  0  0  0  0  0  0  0  0  0  0
   10.4637  -10.4637    0.0000 O    0  3  0  0  0  0  0  0  0  0  0  0
    9.6946   -7.0506    0.0000 O    0  3  0  0  0  0  0  0  0  0  0  0
  1  2  1  0  0  0  0
  1  3  1  0  0  0  0
  2  3  1  0  0  0  0
  1  4  1  0  0  0  0
  1  5  1  0  0  0  0
  2  6  1  0  0  0  0
  2  7  1  0  0  0  0
  2  8  1  0  0  0  0
  2  9  1  0  0  0  0
  3 10  1  0  0  0  0
  3 11  1  0  0  0  0
  3 12  1  0  0  0  0
  3 13  1  0  0  0  0
  6 14  3  0  0  0  0
  7 15  3  0  0  0  0
  8 16  3  0  0  0  0
  9 17  3  0  0  0  0
 10 18  3  0  0  0  0
 11 19  3  0  0  0  0
 12 20  3  0  0  0  0
 13 21  3  0  0  0  0
  5 22  3  0  0  0  0
  4 23  3  0  0  0  0
M  END
> <NMREDATA_VERSION>
1.1

> <NMREDATA_LEVEL>
0

> <NMREDATA_TEMPERATURE>
188

> <NMREDATA_FORMULA>
C10Fe2O10Rh

> <NMREDATA_SMILES>
[O]#C[Rh]1(C#[O])[Fe]([Fe]1(C#[O])(C#[O])(C#[O])C#[O])(C#[O])(C#[O])(C#[O])C#[O]

> <NMREDATA_ASSIGNMENT>
Rh1, 0.00, 1

> <NMREDATA_1D_103Rh>
0.00, L=Rh1

$$$$
