
  ACD/LABS03122417112D

 22 23  0  0  0  0  0  0  0  0  1 V2000
   13.6026   -8.7411    0.0000 C    0  0  0  0  0  0  0  0  0  0  0  0
   13.6026  -10.0711    0.0000 C    0  0  0  0  0  0  0  0  0  0  0  0
   12.4507   -8.0761    0.0000 C    0  0  0  0  0  0  0  0  0  0  0  0
   12.4507  -10.7361    0.0000 C    0  0  0  0  0  0  0  0  0  0  0  0
   11.2989   -8.7411    0.0000 C    0  0  0  0  0  0  0  0  0  0  0  0
   11.2989  -10.0711    0.0000 C    0  0  0  0  0  0  0  0  0  0  0  0
    7.8820  -12.5709    0.0000 C    0  0  0  0  0  0  0  0  0  0  0  0
    7.8820  -13.9009    0.0000 C    0  0  0  0  0  0  0  0  0  0  0  0
    6.7301  -11.9059    0.0000 C    0  0  0  0  0  0  0  0  0  0  0  0
    6.7301  -14.5659    0.0000 C    0  0  0  0  0  0  0  0  0  0  0  0
    5.5783  -12.5709    0.0000 C    0  0  0  0  0  0  0  0  0  0  0  0
    5.5783  -13.9009    0.0000 C    0  0  0  0  0  0  0  0  0  0  0  0
    7.8839   -9.4382    0.0000 Rh   0  0  0  0  0  0  0  0  0  0  0  0
    9.6305   -8.3486    0.0000 P    0  0  0  0  0  0  0  0  0  0  0  0
    6.8102  -10.6560    0.0000 P    0  0  0  0  0  0  0  0  0  0  0  0
   11.2668   -6.5298    0.0000 C    0  0  0  0  0  0  0  0  0  0  0  0
    7.0346   -7.7396    0.0000 Br   0  0  0  0  0  0  0  0  0  0  0  0
    9.5183  -11.2169    0.0000 C    0  0  0  0  0  0  0  0  0  0  0  0
   10.3035  -12.5469    0.0000 O    0  0  0  0  0  0  0  0  0  0  0  0
    9.7266   -5.8808    0.0000 C    0  0  0  0  0  0  0  0  0  0  0  0
    3.9580  -10.1433    0.0000 C    0  0  0  0  0  0  0  0  0  0  0  0
    4.7111  -11.7136    0.0000 C    0  0  0  0  0  0  0  0  0  0  0  0
  1  2  1  0  0  0  0
  1  3  2  0  0  0  0
  2  4  2  0  0  0  0
  3  5  1  0  0  0  0
  4  6  1  0  0  0  0
  5  6  2  0  0  0  0
  7  8  1  0  0  0  0
  7  9  2  0  0  0  0
  8 10  2  0  0  0  0
  9 11  1  0  0  0  0
 10 12  1  0  0  0  0
 11 12  2  0  0  0  0
 13 14  1  0  0  0  0
 13 15  1  0  0  0  0
 14 16  1  0  0  0  0
 13 17  1  0  0  0  0
 13 18  1  0  0  0  0
 18 19  3  0  0  0  0
 14 20  1  0  0  0  0
 15 21  1  0  0  0  0
 15 22  1  0  0  0  0
  9 15  1  0  0  0  0
  5 14  1  0  0  0  0
M  END
> <NMREDATA_VERSION>
1.1

> <NMREDATA_LEVEL>
0

> <NMREDATA_SOLVENT>
C6D6

> <NMREDATA_TEMPERATURE>
297

> <NMREDATA_FORMULA>
C17H24BrOP2Rh

> <NMREDATA_SMILES>
[O]#C[Rh](P(c1ccccc1)(C)C)(P(c1ccccc1)(C)C)Br

> <NMREDATA_ASSIGNMENT>
Rh13, -442.00, 13

> <NMREDATA_1D_103Rh>
-442.00, L=Rh13

$$$$
