
  ACD/LABS04022410372D

 22 18  0  0  0  0  0  0  0  0  2 V2000
   13.1468  -18.8062    0.0000 N    0  0  0  0  0  0  0  0  0  0  0  0
   14.2986  -18.1412    0.0000 C    0  0  0  0  0  0  0  0  0  0  0  0
   15.4504  -17.4762    0.0000 S    0  0  0  0  0  0  0  0  0  0  0  0
   10.8432  -17.4762    0.0000 N    0  0  0  0  0  0  0  0  0  0  0  0
   10.8432  -16.1462    0.0000 C    0  0  0  0  0  0  0  0  0  0  0  0
   10.8432  -14.8162    0.0000 S    0  0  0  0  0  0  0  0  0  0  0  0
   10.8432  -18.8062    0.0000 N    0  0  0  0  0  0  0  0  0  0  0  0
   10.8432  -20.1362    0.0000 C    0  0  0  0  0  0  0  0  0  0  0  0
   10.8432  -21.4662    0.0000 S    0  0  0  0  0  0  0  0  0  0  0  0
   11.9950  -18.1412    0.0000 Rh   0  7  0  0  0  0  0  0  0  0  0  0
   12.2546  -19.4289    0.0000 S    0  0  0  0  0  0  0  0  0  0  0  0
   13.3122  -20.2301    0.0000 C    0  0  0  0  0  0  0  0  0  0  0  0
   14.6903  -21.0633    0.0000 N    0  0  0  0  0  0  0  0  0  0  0  0
   11.9950  -16.8112    0.0000 S    0  0  0  0  0  0  0  0  0  0  0  0
   10.8432  -16.1462    0.0000 C    0  0  0  0  0  0  0  0  0  0  0  0
    9.6914  -15.4812    0.0000 N    0  0  0  0  0  0  0  0  0  0  0  0
   13.4622  -16.1241    0.0000 N    0  0  0  0  0  0  0  0  0  0  0  0
   14.4518  -15.9959    0.0000 C    0  0  0  0  0  0  0  0  0  0  0  0
   15.5056  -15.8356    0.0000 S    0  0  0  0  0  0  0  0  0  0  0  0
   17.0657  -14.5178    0.0000 K    0  3  0  0  0  0  0  0  0  0  0  0
   18.0431  -14.6460    0.0000 K    0  3  0  0  0  0  0  0  0  0  0  0
   19.0847  -14.8063    0.0000 K    0  3  0  0  0  0  0  0  0  0  0  0
  1  2  2  0  0  0  0
  2  3  2  0  0  0  0
  4  5  2  0  0  0  0
  5  6  2  0  0  0  0
  7  8  2  0  0  0  0
  8  9  2  0  0  0  0
 11 12  1  0  0  0  0
 12 13  3  0  0  0  0
 10 11  1  0  0  0  0
 14 15  1  0  0  0  0
 15 16  3  0  0  0  0
 10 14  1  0  0  0  0
 17 18  2  0  0  0  0
 18 19  2  0  0  0  0
 10 17  1  0  0  0  0
  7 10  1  0  0  0  0
  4 10  1  0  0  0  0
  1 10  1  0  0  0  0
M  END
> <NMREDATA_VERSION>
1.1

> <NMREDATA_LEVEL>
0

> <NMREDATA_SOLVENT>
CD2Cl2

> <NMREDATA_TEMPERATURE>
243

> <NMREDATA_FORMULA>
C6H3K3N6RhS6

> <NMREDATA_SMILES>
N#CS[Rh](N=C=S)(N=C=S)(N=C=S)(N=C=S)SC#N.[KH].[KH].[KH]

> <NMREDATA_ASSIGNMENT>
Rh10, 5042.00, 10

> <NMREDATA_1D_103Rh>
5042.00, L=Rh10

$$$$
