LaurenceCarlton-2008_00001.mol
  ChemDraw08202414232D

 55 62  0  0  0  0  0  0  0  0999 V2000
    0.0296    0.8164    0.0000 C    0  0  0  0  0  0  0  0  0  0  0  0
   -2.8676   -0.0057    0.0000 C    0  0  0  0  0  0  0  0  0  0  0  0
   -3.2787   -0.7177    0.0000 C    0  0  0  0  0  0  0  0  0  0  0  0
   -3.2787    0.7063    0.0000 C    0  0  0  0  0  0  0  0  0  0  0  0
   -4.1008   -0.7177    0.0000 C    0  0  0  0  0  0  0  0  0  0  0  0
   -4.1008    0.7063    0.0000 C    0  0  0  0  0  0  0  0  0  0  0  0
   -4.5119   -0.0057    0.0000 C    0  0  0  0  0  0  0  0  0  0  0  0
    0.0296   -0.0057    0.0000 Rh   0  0  0  0  0  0  0  0  0  0  0  0
    0.0296   -0.8279    0.0000 C    0  0  0  0  0  0  0  0  0  0  0  0
    0.0296   -1.6500    0.0000 C    0  0  0  0  0  0  0  0  0  0  0  0
    0.0296   -2.4721    0.0000 C    0  0  0  0  0  0  0  0  0  0  0  0
    0.7416   -2.8832    0.0000 C    0  0  0  0  0  0  0  0  0  0  0  0
   -0.6824   -2.8832    0.0000 C    0  0  0  0  0  0  0  0  0  0  0  0
    0.7416   -3.7053    0.0000 C    0  0  0  0  0  0  0  0  0  0  0  0
   -0.6824   -3.7053    0.0000 C    0  0  0  0  0  0  0  0  0  0  0  0
    0.0296   -4.1164    0.0000 C    0  0  0  0  0  0  0  0  0  0  0  0
   -2.0455   -0.0057    0.0000 P    0  0  0  0  0  0  0  0  0  0  0  0
    2.0455   -0.0057    0.0000 P    0  0  0  0  0  0  0  0  0  0  0  0
    2.0455    0.8164    0.0000 C    0  0  0  0  0  0  0  0  0  0  0  0
    1.3335    1.2275    0.0000 C    0  0  0  0  0  0  0  0  0  0  0  0
    2.7575    1.2275    0.0000 C    0  0  0  0  0  0  0  0  0  0  0  0
    1.3335    2.0496    0.0000 C    0  0  0  0  0  0  0  0  0  0  0  0
    2.7575    2.0496    0.0000 C    0  0  0  0  0  0  0  0  0  0  0  0
    2.0455    2.4607    0.0000 C    0  0  0  0  0  0  0  0  0  0  0  0
    2.0455   -0.8279    0.0000 C    0  0  0  0  0  0  0  0  0  0  0  0
    2.7575   -1.2389    0.0000 C    0  0  0  0  0  0  0  0  0  0  0  0
    1.3335   -1.2389    0.0000 C    0  0  0  0  0  0  0  0  0  0  0  0
    2.7575   -2.0611    0.0000 C    0  0  0  0  0  0  0  0  0  0  0  0
    1.3335   -2.0611    0.0000 C    0  0  0  0  0  0  0  0  0  0  0  0
    2.0455   -2.4721    0.0000 C    0  0  0  0  0  0  0  0  0  0  0  0
   -2.0455    0.8164    0.0000 C    0  0  0  0  0  0  0  0  0  0  0  0
   -2.7575    1.2275    0.0000 C    0  0  0  0  0  0  0  0  0  0  0  0
   -1.3335    1.2275    0.0000 C    0  0  0  0  0  0  0  0  0  0  0  0
   -2.7575    2.0496    0.0000 C    0  0  0  0  0  0  0  0  0  0  0  0
   -1.3335    2.0496    0.0000 C    0  0  0  0  0  0  0  0  0  0  0  0
   -2.0455    2.4607    0.0000 C    0  0  0  0  0  0  0  0  0  0  0  0
   -2.0455   -0.8279    0.0000 C    0  0  0  0  0  0  0  0  0  0  0  0
   -1.3335   -1.2389    0.0000 C    0  0  0  0  0  0  0  0  0  0  0  0
   -2.7575   -1.2389    0.0000 C    0  0  0  0  0  0  0  0  0  0  0  0
   -1.3335   -2.0611    0.0000 C    0  0  0  0  0  0  0  0  0  0  0  0
   -2.7575   -2.0611    0.0000 C    0  0  0  0  0  0  0  0  0  0  0  0
   -2.0455   -2.4721    0.0000 C    0  0  0  0  0  0  0  0  0  0  0  0
    4.1008    0.7063    0.0000 C    0  0  0  0  0  0  0  0  0  0  0  0
    4.5119   -0.0057    0.0000 C    0  0  0  0  0  0  0  0  0  0  0  0
    3.2787    0.7063    0.0000 C    0  0  0  0  0  0  0  0  0  0  0  0
    4.1008   -0.7177    0.0000 C    0  0  0  0  0  0  0  0  0  0  0  0
    2.8676   -0.0057    0.0000 C    0  0  0  0  0  0  0  0  0  0  0  0
    3.2787   -0.7177    0.0000 C    0  0  0  0  0  0  0  0  0  0  0  0
    0.0296    1.6414    0.0000 N    0  0  0  0  0  0  0  0  0  0  0  0
    0.0296    2.4664    0.0000 C    0  0  0  0  0  0  0  0  0  0  0  0
    0.7441    2.8789    0.0000 C    0  0  0  0  0  0  0  0  0  0  0  0
    0.7441    3.7039    0.0000 C    0  0  0  0  0  0  0  0  0  0  0  0
    0.0296    4.1164    0.0000 C    0  0  0  0  0  0  0  0  0  0  0  0
   -0.6849    3.7039    0.0000 C    0  0  0  0  0  0  0  0  0  0  0  0
   -0.6849    2.8789    0.0000 C    0  0  0  0  0  0  0  0  0  0  0  0
  2  3  1  0  0
  2  4  2  0  0
  3  5  2  0  0
  4  6  1  0  0
  5  7  1  0  0
  6  7  2  0  0
  8  9  1  0  0
  9 10  3  0  0
 11 12  1  0  0
 11 13  2  0  0
 12 14  2  0  0
 13 15  1  0  0
 14 16  1  0  0
 15 16  2  0  0
 10 11  1  0  0
  8 17  1  0  0
  8 18  1  0  0
 19 20  1  0  0
 19 21  2  0  0
 20 22  2  0  0
 21 23  1  0  0
 22 24  1  0  0
 23 24  2  0  0
 18 19  1  0  0
 25 26  1  0  0
 25 27  2  0  0
 26 28  2  0  0
 27 29  1  0  0
 28 30  1  0  0
 29 30  2  0  0
 18 25  1  0  0
 31 32  1  0  0
 31 33  2  0  0
 32 34  2  0  0
 33 35  1  0  0
 34 36  1  0  0
 35 36  2  0  0
 17 31  1  0  0
 37 38  1  0  0
 37 39  2  0  0
 38 40  2  0  0
 39 41  1  0  0
 40 42  1  0  0
 41 42  2  0  0
 17 37  1  0  0
  2 17  1  0  0
 43 44  1  0  0
 43 45  2  0  0
 44 46  2  0  0
 45 47  1  0  0
 46 48  1  0  0
 47 48  2  0  0
 18 47  1  0  0
  1  8  1  0  0
  1 49  3  0  0
 49 50  1  0  0
 50 51  2  0  0
 51 52  1  0  0
 52 53  2  0  0
 53 54  1  0  0
 54 55  2  0  0
 55 50  1  0  0
M  END
> <NMREDATA_VERSION>
1.1

> <NMREDATA_LEVEL>
0

> <NMREDATA_SOLVENT>
toluene-d8

> <NMREDATA_TEMPERATURE>
300

> <NMREDATA_FORMULA>
C51H43NP2Rh

> <NMREDATA_SMILES>
c1ccc(cc1)C#C[Rh](P(c1ccccc1)(c1ccccc1)c1ccccc1)(P(c1ccccc1)(c1ccccc1)c1ccccc1)C#Nc1ccccc1

> <NMREDATA_ASSIGNMENT>
Rh8, -687.00, 8

> <NMREDATA_1D_103Rh>
-687.00, L=Rh8

$$$$
