
  ACD/LABS02122411102D

 14 13  0  0  0  0  0  0  0  0  1 V2000
   20.5436  -13.3214    0.0000 Rh   0  0  0  0  0  0  0  0  0  0  0  0
   25.0047  -12.5432    0.0000 C    0  0  0  0  0  0  0  0  0  0  0  0
   25.7135  -10.5976    0.0000 C    0  0  0  0  0  0  0  0  0  0  0  0
   27.7701  -10.2366    0.0000 C    0  0  0  0  0  0  0  0  0  0  0  0
   29.1043  -11.8344    0.0000 C    0  0  0  0  0  0  0  0  0  0  0  0
   26.3389  -14.1417    0.0000 O    0  0  0  0  0  0  0  0  0  0  0  0
   28.4930   -8.2907    0.0000 O    0  0  0  0  0  0  0  0  0  0  0  0
   20.7512  -11.5374    0.0000 C    0  0  0  0  0  0  0  0  0  0  0  0
   21.3922  -10.5759    0.0000 C    0  0  0  0  0  0  0  0  0  0  0  0
   18.9084  -14.8543    0.0000 C    0  0  0  0  0  0  0  0  0  0  0  0
   15.9440  -14.7422    0.0000 C    0  0  0  0  0  0  0  0  0  0  0  0
   19.8378  -15.9440    0.0000 C    0  0  0  0  0  0  0  0  0  0  0  0
   14.9825  -13.2199    0.0000 C    0  0  0  0  0  0  0  0  0  0  0  0
   14.9024  -15.9440    0.0000 H    0  0  0  0  0  0  0  0  0  0  0  0
  1  2  1  0  0  0  0
  2  3  1  0  0  0  0
  3  4  1  0  0  0  0
  4  5  1  0  0  0  0
  2  6  2  0  0  0  0
  4  7  2  0  0  0  0
  1  8  2  0  0  0  0
  8  9  1  0  0  0  0
  1 10  1  0  0  0  0
 10 11  2  0  0  0  0
 10 12  1  0  0  0  0
 11 13  1  0  0  0  0
 11 14  1  0  0  0  0
M  END
> <NMREDATA_VERSION>
1.1

> <NMREDATA_LEVEL>
0

> <NMREDATA_SOLVENT>
DCCl3

> <NMREDATA_TEMPERATURE>
270

> <NMREDATA_FORMULA>
C10H16O2Rh

> <NMREDATA_SMILES>
C/C=C(\[Rh](=C\C)\C(=O)CC(=O)C)/C

> <NMREDATA_ASSIGNMENT>
Rh1, 1386.00, 1

> <NMREDATA_1D_103Rh>
1386.00, L=Rh1

$$$$
