
  ACD/LABS03282419252D

 14 13  0  0  0  0  0  0  0  0  1 V2000
   13.9893   -8.2582    0.0000 Rh   0  0  0  0  0  0  0  0  0  0  0  0
   15.1415   -8.9241    0.0000 Cl   0  0  0  0  0  0  0  0  0  0  0  0
   13.9901   -6.9477    0.0000 Cl   0  0  0  0  0  0  0  0  0  0  0  0
   13.9977   -9.5844    0.0000 Cl   0  0  0  0  0  0  0  0  0  0  0  0
   15.1409   -7.5933    0.0000 P    0  0  0  0  0  0  0  0  0  0  0  0
   12.8378   -8.9230    0.0000 P    0  0  0  0  0  0  0  0  0  0  0  0
   12.9819   -7.4175    0.0000 C    0  0  0  0  0  0  0  0  0  0  0  0
   11.9575   -6.5652    0.0000 O    0  0  0  0  0  0  0  0  0  0  0  0
   13.3020  -10.1704    0.0000 C    0  0  0  0  0  0  0  0  0  0  0  0
   12.1775   -7.7792    0.0000 C    0  0  0  0  0  0  0  0  0  0  0  0
   14.6860   -6.3620    0.0000 C    0  0  0  0  0  0  0  0  0  0  0  0
   15.9891   -8.6191    0.0000 C    0  0  0  0  0  0  0  0  0  0  0  0
   11.6816   -9.5183    0.0000 C    0  0  0  0  0  0  0  0  0  0  0  0
   16.2805   -6.8102    0.0000 C    0  0  0  0  0  0  0  0  0  0  0  0
  1  2  1  0  0  0  0
  1  3  1  0  0  0  0
  1  4  1  0  0  0  0
  1  5  1  0  0  0  0
  1  6  1  0  0  0  0
  1  7  1  0  0  0  0
  7  8  3  0  0  0  0
  6  9  1  0  0  0  0
  6 10  1  0  0  0  0
  5 11  1  0  0  0  0
  5 12  1  0  0  0  0
  6 13  1  0  0  0  0
  5 14  1  0  0  0  0
M  END
> <NMREDATA_VERSION>
1.1

> <NMREDATA_LEVEL>
0

> <NMREDATA_SOLVENT>
C6D6

> <NMREDATA_FORMULA>
C7H20Cl3OP2Rh

> <NMREDATA_SMILES>
[O]#C[Rh](P(C)(C)C)(P(C)(C)C)(Cl)(Cl)Cl

> <NMREDATA_ASSIGNMENT>
Rh1, 1477.00, 1

> <NMREDATA_1D_103Rh>
1477.00, L=Rh1

$$$$
