
  ACD/LABS03152412492D

 59 67  0  0  0  0  0  0  0  0  1 V2000
   14.0821  -17.1558    0.0000 C    0  0  0  0  0  0  0  0  0  0  0  0
   12.8310  -17.6015    0.0000 C    0  0  0  0  0  0  0  0  0  0  0  0
   14.3157  -15.8464    0.0000 C    0  0  0  0  0  0  0  0  0  0  0  0
   11.8095  -16.7453    0.0000 C    0  0  0  0  0  0  0  0  0  0  0  0
   13.2981  -14.9825    0.0000 C    0  0  0  0  0  0  0  0  0  0  0  0
   12.0505  -15.4401    0.0000 C    0  0  0  0  0  0  0  0  0  0  0  0
   17.4634  -14.3861    0.0000 C    0  0  0  0  0  0  0  0  0  0  0  0
   16.6118  -15.3997    0.0000 C    0  0  0  0  0  0  0  0  0  0  0  0
   17.0131  -13.1432    0.0000 C    0  0  0  0  0  0  0  0  0  0  0  0
   15.2948  -15.1619    0.0000 C    0  0  0  0  0  0  0  0  0  0  0  0
   15.6961  -12.9053    0.0000 C    0  0  0  0  0  0  0  0  0  0  0  0
   14.8490  -13.9111    0.0000 C    0  0  0  0  0  0  0  0  0  0  0  0
   12.4613   -3.3040    0.0000 C    0  0  0  0  0  0  0  0  0  0  0  0
   11.2105   -3.7493    0.0000 C    0  0  0  0  0  0  0  0  0  0  0  0
   13.4830   -4.1598    0.0000 C    0  0  0  0  0  0  0  0  0  0  0  0
   10.9769   -5.0587    0.0000 C    0  0  0  0  0  0  0  0  0  0  0  0
   13.2420   -5.4650    0.0000 C    0  0  0  0  0  0  0  0  0  0  0  0
   11.9944   -5.9226    0.0000 C    0  0  0  0  0  0  0  0  0  0  0  0
    8.2822   -7.7744    0.0000 C    0  0  0  0  0  0  0  0  0  0  0  0
    9.5872   -8.0158    0.0000 C    0  0  0  0  0  0  0  0  0  0  0  0
    7.8246   -6.5268    0.0000 C    0  0  0  0  0  0  0  0  0  0  0  0
   10.4436   -6.9940    0.0000 C    0  0  0  0  0  0  0  0  0  0  0  0
    8.6808   -5.5054    0.0000 C    0  0  0  0  0  0  0  0  0  0  0  0
    9.9977   -5.7432    0.0000 C    0  0  0  0  0  0  0  0  0  0  0  0
   13.9216   -6.4518    0.0000 C    0  0  0  0  0  0  0  0  0  0  0  0
   13.0623   -7.4615    0.0000 C    0  0  0  0  0  0  0  0  0  0  0  0
   15.2233   -6.6808    0.0000 C    0  0  0  0  0  0  0  0  0  0  0  0
   13.5156   -8.7165    0.0000 C    0  0  0  0  0  0  0  0  0  0  0  0
   15.6766   -7.9359    0.0000 C    0  0  0  0  0  0  0  0  0  0  0  0
   14.8169   -8.9454    0.0000 C    0  0  0  0  0  0  0  0  0  0  0  0
    7.2109  -13.7112    0.0000 C    0  0  0  0  0  0  0  0  0  0  0  0
    8.0747  -12.6937    0.0000 C    0  0  0  0  0  0  0  0  0  0  0  0
    5.9014  -13.4776    0.0000 C    0  0  0  0  0  0  0  0  0  0  0  0
    7.6169  -11.4465    0.0000 C    0  0  0  0  0  0  0  0  0  0  0  0
    5.4479  -12.2220    0.0000 C    0  0  0  0  0  0  0  0  0  0  0  0
    6.3119  -11.2051    0.0000 C    0  0  0  0  0  0  0  0  0  0  0  0
    9.6132  -11.6256    0.0000 C    0  0  0  0  0  0  0  0  0  0  0  0
   10.7737  -10.9639    0.0000 C    0  0  0  0  0  0  0  0  0  0  0  0
    8.4651  -10.9528    0.0000 C    0  0  0  0  0  0  0  0  0  0  0  0
   10.7696   -9.6407    0.0000 C    0  0  0  0  0  0  0  0  0  0  0  0
    8.4780   -9.6181    0.0000 C    0  0  0  0  0  0  0  0  0  0  0  0
    9.6217   -8.9675    0.0000 C    0  0  0  0  0  0  0  0  0  0  0  0
    7.8369  -14.4720    0.0000 C    0  0  0  0  0  0  0  0  0  0  0  0
    7.3723  -15.7201    0.0000 C    0  0  0  0  0  0  0  0  0  0  0  0
    9.1461  -14.2445    0.0000 C    0  0  0  0  0  0  0  0  0  0  0  0
    8.2295  -16.7370    0.0000 C    0  0  0  0  0  0  0  0  0  0  0  0
    9.9949  -15.2571    0.0000 C    0  0  0  0  0  0  0  0  0  0  0  0
    9.5304  -16.5051    0.0000 C    0  0  0  0  0  0  0  0  0  0  0  0
   10.6892  -13.1686    0.0000 Rh   0  0  0  0  0  0  0  0  0  0  0  0
   10.4474  -14.4734    0.0000 Cl   0  0  0  0  0  0  0  0  0  0  0  0
   11.7530   -7.2276    0.0000 P    0  0  0  0  0  0  0  0  0  0  0  0
    9.3797  -12.9351    0.0000 P    0  0  0  0  0  0  0  0  0  0  0  0
   13.5395  -13.6776    0.0000 P    0  0  0  0  0  0  0  0  0  0  0  0
   12.7561  -11.5041    0.0000 C    0  0  0  0  0  0  0  0  0  0  0  0
   12.9850  -10.2028    0.0000 C    0  0  0  0  0  0  0  0  0  0  0  0
   13.7731  -12.3681    0.0000 C    0  0  0  0  0  0  0  0  0  0  0  0
   14.2357   -9.7569    0.0000 C    0  0  0  0  0  0  0  0  0  0  0  0
   15.0240  -11.9228    0.0000 C    0  0  0  0  0  0  0  0  0  0  0  0
   15.2575  -10.6133    0.0000 C    0  0  0  0  0  0  0  0  0  0  0  0
  1  2  1  0  0  0  0
  1  3  2  0  0  0  0
  2  4  2  0  0  0  0
  3  5  1  0  0  0  0
  4  6  1  0  0  0  0
  5  6  2  0  0  0  0
  7  8  1  0  0  0  0
  7  9  2  0  0  0  0
  8 10  2  0  0  0  0
  9 11  1  0  0  0  0
 10 12  1  0  0  0  0
 11 12  2  0  0  0  0
 13 14  1  0  0  0  0
 13 15  2  0  0  0  0
 14 16  2  0  0  0  0
 15 17  1  0  0  0  0
 16 18  1  0  0  0  0
 17 18  2  0  0  0  0
 19 20  1  0  0  0  0
 19 21  2  0  0  0  0
 20 22  2  0  0  0  0
 21 23  1  0  0  0  0
 22 24  1  0  0  0  0
 23 24  2  0  0  0  0
 25 26  1  0  0  0  0
 25 27  2  0  0  0  0
 26 28  2  0  0  0  0
 27 29  1  0  0  0  0
 28 30  1  0  0  0  0
 29 30  2  0  0  0  0
 31 32  1  0  0  0  0
 31 33  2  0  0  0  0
 32 34  2  0  0  0  0
 33 35  1  0  0  0  0
 34 36  1  0  0  0  0
 35 36  2  0  0  0  0
 37 38  1  0  0  0  0
 37 39  2  0  0  0  0
 38 40  2  0  0  0  0
 39 41  1  0  0  0  0
 40 42  1  0  0  0  0
 41 42  2  0  0  0  0
 43 44  1  0  0  0  0
 43 45  2  0  0  0  0
 44 46  2  0  0  0  0
 45 47  1  0  0  0  0
 46 48  1  0  0  0  0
 47 48  2  0  0  0  0
 49 50  1  0  0  0  0
 49 51  1  0  0  0  0
 49 52  1  0  0  0  0
 49 53  1  0  0  0  0
 45 52  1  0  0  0  0
 37 52  1  0  0  0  0
 32 52  1  0  0  0  0
 26 51  1  0  0  0  0
 22 51  1  0  0  0  0
 18 51  1  0  0  0  0
 12 53  1  0  0  0  0
  5 53  1  0  0  0  0
 54 55  1  0  0  0  0
 54 56  2  0  0  0  0
 55 57  2  0  0  0  0
 56 58  1  0  0  0  0
 57 59  1  0  0  0  0
 58 59  2  0  0  0  0
 53 56  1  0  0  0  0
M  END
> <NMREDATA_VERSION>
1.1

> <NMREDATA_LEVEL>
0

> <NMREDATA_SOLVENT>
CD2Cl2

> <NMREDATA_TEMPERATURE>
300

> <NMREDATA_FORMULA>
C54H48ClP3Rh

> <NMREDATA_SMILES>
Cl[Rh](P(c1ccccc1)(c1ccccc1)c1ccccc1)(P(c1ccccc1)(c1ccccc1)c1ccccc1)P(c1ccccc1)(c1ccccc1)c1ccccc1

> <NMREDATA_ASSIGNMENT>
Rh49, -82.00, 49

> <NMREDATA_1D_103Rh>
-82.00, L=Rh49

$$$$
