
  ACD/LABS03252415542D

 27 28  0  0  0  0  0  0  0  0  1 V2000
   11.1686  -11.0938    0.0000 C    0  0  0  0  0  0  0  0  0  0  0  0
   10.5040  -12.2459    0.0000 N    0  0  0  0  0  0  0  0  0  0  0  0
    9.1743  -12.2473    0.0000 C    0  0  0  0  0  0  0  0  0  0  0  0
   12.4888   -8.7989    0.0000 Rh   0  0  0  0  0  0  0  0  0  0  0  0
   11.1686   -8.7989    0.0000 C    0  0  0  0  0  0  0  0  0  0  0  0
   10.5040   -9.9417    0.0000 C    0  0  0  0  0  0  0  0  0  0  0  0
   10.5040   -7.6560    0.0000 C    0  0  0  0  0  0  0  0  0  0  0  0
    9.1749   -9.9417    0.0000 C    0  0  0  0  0  0  0  0  0  0  0  0
    9.1749   -7.6560    0.0000 C    0  0  0  0  0  0  0  0  0  0  0  0
    8.5100   -8.7989    0.0000 C    0  0  0  0  0  0  0  0  0  0  0  0
   11.1686   -6.5039    0.0000 C    0  0  0  0  0  0  0  0  0  0  0  0
   10.5040   -5.3519    0.0000 N    0  0  0  0  0  0  0  0  0  0  0  0
    9.1743   -5.3504    0.0000 C    0  0  0  0  0  0  0  0  0  0  0  0
   13.8090   -6.5039    0.0000 C    0  0  0  0  0  0  0  0  0  0  0  0
   14.4736   -5.3519    0.0000 N    0  0  0  0  0  0  0  0  0  0  0  0
   15.8033   -5.3504    0.0000 C    0  0  0  0  0  0  0  0  0  0  0  0
   13.8179   -8.7989    0.0000 C    0  0  0  0  0  0  0  0  0  0  0  0
   14.4736   -7.6560    0.0000 C    0  0  0  0  0  0  0  0  0  0  0  0
   14.4825   -9.9417    0.0000 C    0  0  0  0  0  0  0  0  0  0  0  0
   15.8027   -7.6560    0.0000 C    0  0  0  0  0  0  0  0  0  0  0  0
   15.8027   -9.9417    0.0000 C    0  0  0  0  0  0  0  0  0  0  0  0
   16.4676   -8.7989    0.0000 C    0  0  0  0  0  0  0  0  0  0  0  0
   13.8179  -11.0938    0.0000 C    0  0  0  0  0  0  0  0  0  0  0  0
   14.4825  -12.2459    0.0000 N    0  0  0  0  0  0  0  0  0  0  0  0
   15.8122  -12.2473    0.0000 C    0  0  0  0  0  0  0  0  0  0  0  0
   12.4888  -10.1280    0.0000 Cl   0  0  0  0  0  0  0  0  0  0  0  0
   12.4888   -7.4697    0.0000 Cl   0  0  0  0  0  0  0  0  0  0  0  0
  1  2  2  0  0  0  0
  2  3  1  0  0  0  0
  5  6  1  0  0  0  0
  5  7  2  0  0  0  0
  6  8  2  0  0  0  0
  7  9  1  0  0  0  0
  8 10  1  0  0  0  0
  9 10  2  0  0  0  0
  4  5  1  0  0  0  0
  7 11  1  0  0  0  0
 11 12  2  0  0  0  0
 12 13  1  0  0  0  0
  1  6  1  0  0  0  0
 14 15  2  0  0  0  0
 15 16  1  0  0  0  0
 17 18  1  0  0  0  0
 17 19  2  0  0  0  0
 18 20  2  0  0  0  0
 19 21  1  0  0  0  0
 20 22  1  0  0  0  0
 21 22  2  0  0  0  0
 19 23  1  0  0  0  0
 23 24  2  0  0  0  0
 24 25  1  0  0  0  0
 14 18  1  0  0  0  0
  4 17  1  0  0  0  0
  4 26  1  0  0  0  0
  4 27  1  0  0  0  0
M  END
> <NMREDATA_VERSION>
1.1

> <NMREDATA_LEVEL>
0

> <NMREDATA_SOLVENT>
CD3OD

> <NMREDATA_TEMPERATURE>
298

> <NMREDATA_FORMULA>
C20H22Cl2N4Rh

> <NMREDATA_SMILES>
C/N=C\c1cccc(c1[Rh](c1c(cccc1/C=N\C)/C=N\C)(Cl)Cl)/C=N\C

> <NMREDATA_ASSIGNMENT>
Rh4, 3888.00, 4

> <NMREDATA_1D_103Rh>
3888.00, L=Rh4

$$$$
