
  ACD/LABS04032410462D

 62 68  0  0  0  0  0  0  0  0  2 V2000
   13.3481  -15.5113    0.0000 Rh   0  2  0  0  0  0  0  0  0  0  0  0
   12.2264  -13.9410    0.0000 Cl   0  0  0  0  0  0  0  0  0  0  0  0
   14.5980  -16.9855    0.0000 Cl   0  0  0  0  0  0  0  0  0  0  0  0
   14.8223  -14.5499    0.0000 Sb   0  5  0  0  0  0  0  0  0  0  0  0
   11.7457  -16.5048    0.0000 Sb   0  5  0  0  0  0  0  0  0  0  0  0
   16.5435  -15.4227    0.0000 C    0  0  0  0  0  0  0  0  0  0  0  0
   18.1599  -14.3685    0.0000 C    0  0  0  0  0  0  0  0  0  0  0  0
   16.6483  -17.3498    0.0000 C    0  0  0  0  0  0  0  0  0  0  0  0
   19.8812  -15.2414    0.0000 C    0  0  0  0  0  0  0  0  0  0  0  0
   18.3694  -18.2225    0.0000 C    0  0  0  0  0  0  0  0  0  0  0  0
   19.9859  -17.1683    0.0000 C    0  0  0  0  0  0  0  0  0  0  0  0
   14.7176  -12.6229    0.0000 C    0  0  0  0  0  0  0  0  0  0  0  0
   12.9964  -11.7501    0.0000 C    0  0  0  0  0  0  0  0  0  0  0  0
   16.3341  -11.5686    0.0000 C    0  0  0  0  0  0  0  0  0  0  0  0
   12.8917   -9.8230    0.0000 C    0  0  0  0  0  0  0  0  0  0  0  0
   16.2293   -9.6417    0.0000 C    0  0  0  0  0  0  0  0  0  0  0  0
   14.5082   -8.7689    0.0000 C    0  0  0  0  0  0  0  0  0  0  0  0
   10.0449  -15.5929    0.0000 C    0  0  0  0  0  0  0  0  0  0  0  0
    8.4047  -16.6097    0.0000 C    0  0  0  0  0  0  0  0  0  0  0  0
    9.9843  -13.6639    0.0000 C    0  0  0  0  0  0  0  0  0  0  0  0
    6.7039  -15.6976    0.0000 C    0  0  0  0  0  0  0  0  0  0  0  0
    8.2836  -12.7519    0.0000 C    0  0  0  0  0  0  0  0  0  0  0  0
    6.6434  -13.7688    0.0000 C    0  0  0  0  0  0  0  0  0  0  0  0
   11.8063  -18.4337    0.0000 C    0  0  0  0  0  0  0  0  0  0  0  0
   13.5070  -19.3457    0.0000 C    0  0  0  0  0  0  0  0  0  0  0  0
   10.1660  -19.4507    0.0000 C    0  0  0  0  0  0  0  0  0  0  0  0
   13.5675  -21.2747    0.0000 C    0  0  0  0  0  0  0  0  0  0  0  0
   10.2266  -21.3795    0.0000 C    0  0  0  0  0  0  0  0  0  0  0  0
   11.9273  -22.2915    0.0000 C    0  0  0  0  0  0  0  0  0  0  0  0
   18.0431  -12.5148    0.0000 C    0  0  0  0  0  0  0  0  0  0  0  0
    7.5954  -18.9565    0.0000 C    0  0  0  0  0  0  0  0  0  0  0  0
   19.5654  -13.4602    0.0000 C    0  0  0  0  0  0  0  0  0  0  0  0
   21.0717  -12.0982    0.0000 C    0  0  0  0  0  0  0  0  0  0  0  0
    7.2589  -20.2384    0.0000 C    0  0  0  0  0  0  0  0  0  0  0  0
    5.8648  -19.9340    0.0000 C    0  0  0  0  0  0  0  0  0  0  0  0
    5.4482  -21.4563    0.0000 Sb   0  0  0  0  0  0  0  0  0  0  0  0
   22.4498  -13.2039    0.0000 Sb   0  0  0  0  0  0  0  0  0  0  0  0
   22.1565  -15.1113    0.0000 C    0  0  0  0  0  0  0  0  0  0  0  0
   23.6617  -16.3190    0.0000 C    0  0  0  0  0  0  0  0  0  0  0  0
   20.3579  -15.8111    0.0000 C    0  0  0  0  0  0  0  0  0  0  0  0
   23.3683  -18.2265    0.0000 C    0  0  0  0  0  0  0  0  0  0  0  0
   20.0646  -17.7184    0.0000 C    0  0  0  0  0  0  0  0  0  0  0  0
   21.5699  -18.9261    0.0000 C    0  0  0  0  0  0  0  0  0  0  0  0
   24.2483  -12.5041    0.0000 C    0  0  0  0  0  0  0  0  0  0  0  0
   24.5416  -10.5967    0.0000 C    0  0  0  0  0  0  0  0  0  0  0  0
   25.7536  -13.7119    0.0000 C    0  0  0  0  0  0  0  0  0  0  0  0
   26.3402   -9.8970    0.0000 C    0  0  0  0  0  0  0  0  0  0  0  0
   27.5521  -13.0121    0.0000 C    0  0  0  0  0  0  0  0  0  0  0  0
   27.8454  -11.1047    0.0000 C    0  0  0  0  0  0  0  0  0  0  0  0
    3.5815  -21.9458    0.0000 C    0  0  0  0  0  0  0  0  0  0  0  0
    3.0720  -23.8071    0.0000 C    0  0  0  0  0  0  0  0  0  0  0  0
    2.2241  -20.5739    0.0000 C    0  0  0  0  0  0  0  0  0  0  0  0
    1.2052  -24.2966    0.0000 C    0  0  0  0  0  0  0  0  0  0  0  0
    0.3574  -21.0634    0.0000 C    0  0  0  0  0  0  0  0  0  0  0  0
   -0.1520  -22.9247    0.0000 C    0  0  0  0  0  0  0  0  0  0  0  0
    6.8055  -22.8281    0.0000 C    0  0  0  0  0  0  0  0  0  0  0  0
    8.6722  -22.3386    0.0000 C    0  0  0  0  0  0  0  0  0  0  0  0
    6.2961  -24.6896    0.0000 C    0  0  0  0  0  0  0  0  0  0  0  0
   10.0295  -23.7107    0.0000 C    0  0  0  0  0  0  0  0  0  0  0  0
    7.6533  -26.0615    0.0000 C    0  0  0  0  0  0  0  0  0  0  0  0
    9.5200  -25.5720    0.0000 C    0  0  0  0  0  0  0  0  0  0  0  0
   27.7377  -19.5494    0.0000 Cl   0  5  0  0  0  0  0  0  0  0  0  0
  1  2  1  0  0  0  0
  1  3  1  0  0  0  0
  1  4  1  0  0  0  0
  1  5  1  0  0  0  0
  6  7  1  0  0  0  0
  6  8  2  0  0  0  0
  7  9  2  0  0  0  0
  8 10  1  0  0  0  0
  9 11  1  0  0  0  0
 10 11  2  0  0  0  0
  4  6  1  0  0  0  0
 12 13  1  0  0  0  0
 12 14  2  0  0  0  0
 13 15  2  0  0  0  0
 14 16  1  0  0  0  0
 15 17  1  0  0  0  0
 16 17  2  0  0  0  0
  4 12  1  0  0  0  0
 18 19  1  0  0  0  0
 18 20  2  0  0  0  0
 19 21  2  0  0  0  0
 20 22  1  0  0  0  0
 21 23  1  0  0  0  0
 22 23  2  0  0  0  0
  5 18  1  0  0  0  0
 24 25  1  0  0  0  0
 24 26  2  0  0  0  0
 25 27  2  0  0  0  0
 26 28  1  0  0  0  0
 27 29  1  0  0  0  0
 28 29  2  0  0  0  0
  5 24  1  0  0  0  0
  4 30  1  0  0  0  0
  5 31  1  0  0  0  0
 30 32  1  0  0  0  0
 32 33  1  0  0  0  0
 31 34  1  0  0  0  0
 34 35  1  0  0  0  0
 35 36  1  0  0  0  0
 33 37  1  0  0  0  0
 38 39  1  0  0  0  0
 38 40  2  0  0  0  0
 39 41  2  0  0  0  0
 40 42  1  0  0  0  0
 41 43  1  0  0  0  0
 42 43  2  0  0  0  0
 37 38  1  0  0  0  0
 44 45  1  0  0  0  0
 44 46  2  0  0  0  0
 45 47  2  0  0  0  0
 46 48  1  0  0  0  0
 47 49  1  0  0  0  0
 48 49  2  0  0  0  0
 37 44  1  0  0  0  0
 50 51  1  0  0  0  0
 50 52  2  0  0  0  0
 51 53  2  0  0  0  0
 52 54  1  0  0  0  0
 53 55  1  0  0  0  0
 54 55  2  0  0  0  0
 36 50  1  0  0  0  0
 56 57  1  0  0  0  0
 56 58  2  0  0  0  0
 57 59  2  0  0  0  0
 58 60  1  0  0  0  0
 59 61  1  0  0  0  0
 60 61  2  0  0  0  0
 36 56  1  0  0  0  0
M  END
> <NMREDATA_VERSION>
1.1

> <NMREDATA_LEVEL>
0

> <NMREDATA_SOLVENT>
CD2Cl2

> <NMREDATA_TEMPERATURE>
300

> <NMREDATA_FORMULA>
C54H55Cl3RhSb4

> <NMREDATA_SMILES>
Cl[Rh]([SbH](c1ccccc1)(c1ccccc1)CCC[Sb](c1ccccc1)c1ccccc1)([SbH](c1ccccc1)(c1ccccc1)CCC[Sb](c1ccccc1)c1ccccc1)Cl.Cl

> <NMREDATA_ASSIGNMENT>
Rh1, 2104.00, 1

> <NMREDATA_1D_103Rh>
2104.00, L=Rh1

$$$$
