
  ACD/LABS03152413082D

 55 61  0  0  0  0  0  0  0  0  1 V2000
   10.8514  -12.7165    0.0000 C    0  0  0  0  0  0  0  0  0  0  0  0
   11.8773  -11.8683    0.0000 C    0  0  0  0  0  0  0  0  0  0  0  0
    9.6073  -12.2471    0.0000 C    0  0  0  0  0  0  0  0  0  0  0  0
   11.6512  -10.5549    0.0000 C    0  0  0  0  0  0  0  0  0  0  0  0
    9.3816  -10.9335    0.0000 C    0  0  0  0  0  0  0  0  0  0  0  0
   10.4073  -10.0850    0.0000 C    0  0  0  0  0  0  0  0  0  0  0  0
   14.2806  -11.6685    0.0000 Rh   0  0  0  0  0  0  0  0  0  0  0  0
   13.1243  -12.3257    0.0000 S    0  0  0  0  0  0  0  0  0  0  0  0
   13.8242  -10.4163    0.0000 P    0  0  0  0  0  0  0  0  0  0  0  0
   14.7249  -12.9168    0.0000 P    0  0  0  0  0  0  0  0  0  0  0  0
   16.9907  -10.6871    0.0000 P    0  0  0  0  0  0  0  0  0  0  0  0
   17.2813   -9.7720    0.0000 C    0  0  0  0  0  0  0  0  0  0  0  0
   16.1250  -10.4293    0.0000 C    0  0  0  0  0  0  0  0  0  0  0  0
   17.2857   -8.4488    0.0000 C    0  0  0  0  0  0  0  0  0  0  0  0
   14.9728   -9.7635    0.0000 C    0  0  0  0  0  0  0  0  0  0  0  0
   16.1361   -7.7707    0.0000 C    0  0  0  0  0  0  0  0  0  0  0  0
   14.9843   -8.4357    0.0000 C    0  0  0  0  0  0  0  0  0  0  0  0
   13.7719   -6.9037    0.0000 C    0  0  0  0  0  0  0  0  0  0  0  0
   12.4660   -6.6640    0.0000 C    0  0  0  0  0  0  0  0  0  0  0  0
   14.2284   -8.1553    0.0000 C    0  0  0  0  0  0  0  0  0  0  0  0
   11.6177   -7.6762    0.0000 C    0  0  0  0  0  0  0  0  0  0  0  0
   13.3797   -9.1677    0.0000 C    0  0  0  0  0  0  0  0  0  0  0  0
   12.0663   -8.9328    0.0000 C    0  0  0  0  0  0  0  0  0  0  0  0
   12.4552  -13.2953    0.0000 C    0  0  0  0  0  0  0  0  0  0  0  0
   11.4293  -14.1435    0.0000 C    0  0  0  0  0  0  0  0  0  0  0  0
   13.6993  -13.7647    0.0000 C    0  0  0  0  0  0  0  0  0  0  0  0
   11.6476  -15.4613    0.0000 C    0  0  0  0  0  0  0  0  0  0  0  0
   13.9206  -15.0706    0.0000 C    0  0  0  0  0  0  0  0  0  0  0  0
   12.8948  -15.9190    0.0000 C    0  0  0  0  0  0  0  0  0  0  0  0
   15.3825  -14.0729    0.0000 C    0  0  0  0  0  0  0  0  0  0  0  0
   16.7054  -14.0774    0.0000 C    0  0  0  0  0  0  0  0  0  0  0  0
   14.7121  -15.2179    0.0000 C    0  0  0  0  0  0  0  0  0  0  0  0
   17.3627  -15.2337    0.0000 C    0  0  0  0  0  0  0  0  0  0  0  0
   15.3694  -16.3742    0.0000 C    0  0  0  0  0  0  0  0  0  0  0  0
   16.7051  -16.3816    0.0000 C    0  0  0  0  0  0  0  0  0  0  0  0
   19.2637  -11.0951    0.0000 C    0  0  0  0  0  0  0  0  0  0  0  0
   20.5157  -10.6384    0.0000 C    0  0  0  0  0  0  0  0  0  0  0  0
   18.2426  -10.2304    0.0000 C    0  0  0  0  0  0  0  0  0  0  0  0
   20.7476   -9.3369    0.0000 C    0  0  0  0  0  0  0  0  0  0  0  0
   18.4866   -8.9328    0.0000 C    0  0  0  0  0  0  0  0  0  0  0  0
   19.7386   -8.4761    0.0000 C    0  0  0  0  0  0  0  0  0  0  0  0
   17.6557  -11.8389    0.0000 C    0  0  0  0  0  0  0  0  0  0  0  0
   18.9834  -11.8510    0.0000 C    0  0  0  0  0  0  0  0  0  0  0  0
   16.9779  -12.9882    0.0000 C    0  0  0  0  0  0  0  0  0  0  0  0
   19.6410  -13.0071    0.0000 C    0  0  0  0  0  0  0  0  0  0  0  0
   17.6429  -14.1400    0.0000 C    0  0  0  0  0  0  0  0  0  0  0  0
   18.9706  -14.1521    0.0000 C    0  0  0  0  0  0  0  0  0  0  0  0
   12.6770   -9.7065    0.0000 F    0  0  0  0  0  0  0  0  0  0  0  0
   10.1857   -8.7794    0.0000 F    0  0  0  0  0  0  0  0  0  0  0  0
    8.1344  -10.4758    0.0000 F    0  0  0  0  0  0  0  0  0  0  0  0
    8.5814  -13.0952    0.0000 F    0  0  0  0  0  0  0  0  0  0  0  0
   10.6074  -14.0141    0.0000 F    0  0  0  0  0  0  0  0  0  0  0  0
   12.5800  -10.8686    0.0000 C    0  0  0  0  0  0  0  0  0  0  0  0
   15.8690  -12.2562    0.0000 C    0  0  0  0  0  0  0  0  0  0  0  0
   16.5464   -9.4388    0.0000 C    0  0  0  0  0  0  0  0  0  0  0  0
  1  2  1  0  0  0  0
  1  3  2  0  0  0  0
  2  4  2  0  0  0  0
  3  5  1  0  0  0  0
  4  6  1  0  0  0  0
  5  6  2  0  0  0  0
  7  8  1  0  0  0  0
  7  9  1  0  0  0  0
  7 10  1  0  0  0  0
  7 11  1  0  0  0  0
 12 13  1  0  0  0  0
 12 14  2  0  0  0  0
 13 15  2  0  0  0  0
 14 16  1  0  0  0  0
 15 17  1  0  0  0  0
 16 17  2  0  0  0  0
  9 15  1  0  0  0  0
 18 19  1  0  0  0  0
 18 20  2  0  0  0  0
 19 21  2  0  0  0  0
 20 22  1  0  0  0  0
 21 23  1  0  0  0  0
 22 23  2  0  0  0  0
  9 22  1  0  0  0  0
 24 25  1  0  0  0  0
 24 26  2  0  0  0  0
 25 27  2  0  0  0  0
 26 28  1  0  0  0  0
 27 29  1  0  0  0  0
 28 29  2  0  0  0  0
 10 26  1  0  0  0  0
 30 31  1  0  0  0  0
 30 32  2  0  0  0  0
 31 33  2  0  0  0  0
 32 34  1  0  0  0  0
 33 35  1  0  0  0  0
 34 35  2  0  0  0  0
 10 30  1  0  0  0  0
 36 37  1  0  0  0  0
 36 38  2  0  0  0  0
 37 39  2  0  0  0  0
 38 40  1  0  0  0  0
 39 41  1  0  0  0  0
 40 41  2  0  0  0  0
 11 38  1  0  0  0  0
 42 43  1  0  0  0  0
 42 44  2  0  0  0  0
 43 45  2  0  0  0  0
 44 46  1  0  0  0  0
 45 47  1  0  0  0  0
 46 47  2  0  0  0  0
 11 42  1  0  0  0  0
  2  8  1  0  0  0  0
  4 48  1  0  0  0  0
  6 49  1  0  0  0  0
  5 50  1  0  0  0  0
  3 51  1  0  0  0  0
  1 52  1  0  0  0  0
  9 53  1  0  0  0  0
 10 54  1  0  0  0  0
 11 55  1  0  0  0  0
M  END
> <NMREDATA_VERSION>
1.1

> <NMREDATA_LEVEL>
0

> <NMREDATA_SOLVENT>
toluene-d8

> <NMREDATA_TEMPERATURE>
248

> <NMREDATA_FORMULA>
C45H42F5P3RhS

> <NMREDATA_SMILES>
Fc1c(S[Rh](P(c2ccccc2)(c2ccccc2)C)(P(c2ccccc2)(c2ccccc2)C)P(c2ccccc2)(c2ccccc2)C)c(F)c(c(c1F)F)F

> <NMREDATA_ASSIGNMENT>
Rh7, -414.00, 7

> <NMREDATA_1D_103Rh>
-414.00, L=Rh7

$$$$
