
  ACD/LABS04032411172D

 34 32  0  0  0  0  0  0  0  0  2 V2000
   14.5980  -15.3190    0.0000 Rh   0  0  0  0  0  0  0  0  0  0  0  0
   13.7006  -16.9695    0.0000 S    0  3  0  0  0  0  0  0  0  0  0  0
   12.7231  -15.7677    0.0000 S    0  3  0  0  0  0  0  0  0  0  0  0
   15.7517  -17.0657    0.0000 S    0  3  0  0  0  0  0  0  0  0  0  0
   16.8894  -15.6075    0.0000 S    0  3  0  0  0  0  0  0  0  0  0  0
   14.1653  -17.9149    0.0000 C    0  0  0  0  0  0  0  0  0  0  0  0
   12.7231  -17.5945    0.0000 C    0  0  0  0  0  0  0  0  0  0  0  0
   12.6430  -16.5849    0.0000 C    0  0  0  0  0  0  0  0  0  0  0  0
   11.7136  -15.8799    0.0000 C    0  0  0  0  0  0  0  0  0  0  0  0
   16.1683  -17.7227    0.0000 C    0  0  0  0  0  0  0  0  0  0  0  0
   16.5048  -17.0336    0.0000 C    0  0  0  0  0  0  0  0  0  0  0  0
   17.7227  -16.3446    0.0000 C    0  0  0  0  0  0  0  0  0  0  0  0
   17.4663  -15.1428    0.0000 C    0  0  0  0  0  0  0  0  0  0  0  0
   13.7166  -13.5083    0.0000 Br   0  0  0  0  0  0  0  0  0  0  0  0
   12.6430  -14.6300    0.0000 Br   0  0  0  0  0  0  0  0  0  0  0  0
   15.5915  -13.6045    0.0000 Br   0  0  0  0  0  0  0  0  0  0  0  0
   16.8894  -14.4057    0.0000 Br   0  0  0  0  0  0  0  0  0  0  0  0
   24.1643  -14.5419    0.0000 N    0  3  0  0  0  0  0  0  0  0  0  0
   23.6664  -13.6732    0.0000 C    0  0  0  0  0  0  0  0  0  0  0  0
   22.6592  -13.6729    0.0000 C    0  0  0  0  0  0  0  0  0  0  0  0
   22.1518  -12.8066    0.0000 C    0  0  0  0  0  0  0  0  0  0  0  0
   21.1481  -12.8005    0.0000 C    0  0  0  0  0  0  0  0  0  0  0  0
   25.0271  -14.0406    0.0000 C    0  0  0  0  0  0  0  0  0  0  0  0
   25.0334  -13.0367    0.0000 C    0  0  0  0  0  0  0  0  0  0  0  0
   25.8996  -12.5293    0.0000 C    0  0  0  0  0  0  0  0  0  0  0  0
   25.9058  -11.5256    0.0000 C    0  0  0  0  0  0  0  0  0  0  0  0
   23.3015  -15.0432    0.0000 C    0  0  0  0  0  0  0  0  0  0  0  0
   23.2953  -16.0471    0.0000 C    0  0  0  0  0  0  0  0  0  0  0  0
   22.4290  -16.5544    0.0000 C    0  0  0  0  0  0  0  0  0  0  0  0
   22.4229  -17.5581    0.0000 C    0  0  0  0  0  0  0  0  0  0  0  0
   24.6656  -15.4047    0.0000 C    0  0  0  0  0  0  0  0  0  0  0  0
   25.6695  -15.4109    0.0000 C    0  0  0  0  0  0  0  0  0  0  0  0
   26.1769  -16.2772    0.0000 C    0  0  0  0  0  0  0  0  0  0  0  0
   27.1806  -16.2833    0.0000 C    0  0  0  0  0  0  0  0  0  0  0  0
  1  2  1  0  0  0  0
  1  3  1  0  0  0  0
  1  4  1  0  0  0  0
  1  5  1  0  0  0  0
  2  6  1  0  0  0  0
  2  7  1  0  0  0  0
  3  8  1  0  0  0  0
  3  9  1  0  0  0  0
  4 10  1  0  0  0  0
  4 11  1  0  0  0  0
  5 12  1  0  0  0  0
  5 13  1  0  0  0  0
  1 14  1  0  0  0  0
  1 15  1  0  0  0  0
  1 16  1  0  0  0  0
  1 17  1  0  0  0  0
 18 19  1  0  0  0  0
 19 20  1  0  0  0  0
 20 21  1  0  0  0  0
 21 22  1  0  0  0  0
 18 23  1  0  0  0  0
 23 24  1  0  0  0  0
 24 25  1  0  0  0  0
 25 26  1  0  0  0  0
 18 27  1  0  0  0  0
 27 28  1  0  0  0  0
 28 29  1  0  0  0  0
 29 30  1  0  0  0  0
 18 31  1  0  0  0  0
 31 32  1  0  0  0  0
 32 33  1  0  0  0  0
 33 34  1  0  0  0  0
M  END
> <NMREDATA_VERSION>
1.1

> <NMREDATA_LEVEL>
0

> <NMREDATA_SOLVENT>
CD2Cl2

> <NMREDATA_FORMULA>
C24H65Br4NRhS4

> <NMREDATA_SMILES>
CS([Rh](S(C)C)(S(C)C)(S(C)C)(Br)(Br)(Br)Br)C.CCCCN(CCCC)(CCCC)CCCC

> <NMREDATA_ASSIGNMENT>
Rh1, 4339.00, 1

> <NMREDATA_1D_103Rh>
4339.00, L=Rh1

$$$$
