
  ACD/LABS03072417383D

 29 35  0  0  0  0  0  0  0  0  1 V2000
   14.4217  -19.8539    0.0000 C    0  0  0  0  0  0  0  0  0  0  0  0
   14.4377  -18.3796    0.0000 C    0  0  0  0  0  0  0  0  0  0  0  0
   16.3766  -17.5784    0.0000 C    0  0  0  0  0  0  0  0  0  0  0  0
   17.7227  -18.1874    0.0000 C    0  0  0  0  0  0  0  0  0  0  0  0
   16.0081  -19.1168    0.0000 C    0  0  0  0  0  0  0  0  0  0  0  0
   17.4663  -19.8058    0.0000 C    0  0  0  0  0  0  0  0  0  0  0  0
   16.0882  -16.8093    0.0000 C    0  0  0  0  0  0  0  0  0  0  0  0
   16.3890  -15.6120    0.0000 Rh   0  0  0  0  0  0  0  0  0  0  0  0
   17.6567  -13.4042    0.0000 N    0  0  0  0  0  0  0  0  0  0  0  0
   17.6567  -14.7342    0.0000 N    0  0  0  0  0  0  0  0  0  0  0  0
   16.5048  -12.7392    0.0000 B    0  0  0  0  0  0  0  0  0  0  0  0
   15.3530  -13.4042    0.0000 N    0  0  0  0  0  0  0  0  0  0  0  0
   15.3530  -14.7342    0.0000 N    0  0  0  0  0  0  0  0  0  0  0  0
   18.9215  -12.9932    0.0000 C    0  0  0  0  0  0  0  0  0  0  0  0
   19.7033  -14.0692    0.0000 C    0  0  0  0  0  0  0  0  0  0  0  0
   18.9217  -15.1452    0.0000 C    0  0  0  0  0  0  0  0  0  0  0  0
   14.0881  -12.9932    0.0000 C    0  0  0  0  0  0  0  0  0  0  0  0
   13.3064  -14.0692    0.0000 C    0  0  0  0  0  0  0  0  0  0  0  0
   14.0880  -15.1452    0.0000 C    0  0  0  0  0  0  0  0  0  0  0  0
   14.4514   -9.0351    0.0000 C    0  0  0  0  0  0  0  0  0  0  0  0
   15.5281   -8.2543    0.0000 C    0  0  0  0  0  0  0  0  0  0  0  0
   14.8613  -10.3004    0.0000 N    0  0  0  0  0  0  0  0  0  0  0  0
   16.6033   -9.0370    0.0000 C    0  0  0  0  0  0  0  0  0  0  0  0
   16.1914  -10.3016    0.0000 N    0  0  0  0  0  0  0  0  0  0  0  0
   18.0271  -11.8418    0.0000 H    0  0  0  0  0  0  0  0  0  0  0  0
   13.1868   -8.6230    0.0000 C    0  0  0  0  0  0  0  0  0  0  0  0
   12.1976   -9.5122    0.0000 C    0  0  0  0  0  0  0  0  0  0  0  0
   12.9114   -7.3219    0.0000 C    0  0  0  0  0  0  0  0  0  0  0  0
   15.4472   -6.9384    0.0000 Br   0  0  0  0  0  0  0  0  0  0  0  0
  1  2  2  0  0  0  0
  2  3  1  0  0  0  0
  3  4  1  0  0  0  0
  1  5  1  0  0  0  0
  5  6  1  0  0  0  0
  6  4  2  0  0  0  0
  5  7  1  0  0  0  0
  3  7  1  0  0  0  0
  9 11  1  0  0  0  0
 11 12  1  0  0  0  0
  9 14  1  0  0  0  0
  9 10  1  0  0  0  0
 14 15  2  0  0  0  0
 10 16  2  0  0  0  0
 15 16  1  0  0  0  0
 12 17  1  0  0  0  0
 12 13  1  0  0  0  0
 17 18  2  0  0  0  0
 13 19  2  0  0  0  0
 18 19  1  0  0  0  0
 20 21  1  0  0  0  0
 20 22  2  0  0  0  0
 21 23  2  0  0  0  0
 22 24  1  0  0  0  0
 23 24  1  0  0  0  0
 11 24  1  0  0  0  0
 11 25  1  0  0  0  0
  8 10  1  0  0  0  0
  8 13  1  0  0  0  0
  8 22  1  0  0  0  0
 26 27  1  0  0  0  0
 26 28  1  0  0  0  0
 20 26  1  0  0  0  0
 21 29  1  0  0  0  0
  7  8  1  0  0  0  0
M  END
> <NMREDATA_VERSION>
1.1

> <NMREDATA_LEVEL>
0

> <NMREDATA_SOLVENT>
DCCl3

> <NMREDATA_TEMPERATURE>
298

> <NMREDATA_FORMULA>
C19H25BBrN6Rh

> <NMREDATA_SMILES>
CC(C1=N2N(C=C1Br)[BH]1N3N(=CC=C3)[Rh]2(C2C3C=CC2C=C3)N2=CC=CN12)C

> <NMREDATA_ASSIGNMENT>
Rh8, 1293.00, 8

> <NMREDATA_1D_103Rh>
1293.00, L=Rh8

$$$$
