
  ACD/LABS02062413512D

 15 16  0  0  0  0  0  0  0  0  1 V2000
   22.8701  -13.1593    0.0000 C    0  0  0  0  0  0  0  0  0  0  0  0
   23.4111  -11.9442    0.0000 C    0  0  0  0  0  0  0  0  0  0  0  0
   23.8585  -14.0492    0.0000 C    0  0  0  0  0  0  0  0  0  0  0  0
   24.7338  -12.0833    0.0000 C    0  0  0  0  0  0  0  0  0  0  0  0
   25.0103  -13.3842    0.0000 C    0  0  0  0  0  0  0  0  0  0  0  0
   21.5692  -13.4358    0.0000 Rh   0  0  0  0  0  0  0  0  0  0  0  0
   23.8585  -15.3792    0.0000 C    0  0  0  0  0  0  0  0  0  0  0  0
   25.0103  -16.0442    0.0000 C    0  0  0  0  0  0  0  0  0  0  0  0
   26.1621  -14.0492    0.0000 C    0  0  0  0  0  0  0  0  0  0  0  0
   26.1621  -15.3792    0.0000 C    0  0  0  0  0  0  0  0  0  0  0  0
   22.7461  -10.7924    0.0000 C    0  0  0  0  0  0  0  0  0  0  0  0
   20.6792  -12.4474    0.0000 C    0  0  0  0  0  0  0  0  0  0  0  0
   21.0902  -11.1825    0.0000 C    0  0  0  0  0  0  0  0  0  0  0  0
   21.1582  -14.7007    0.0000 C    0  0  0  0  0  0  0  0  0  0  0  0
   19.8572  -14.9772    0.0000 C    0  0  0  0  0  0  0  0  0  0  0  0
  1  2  1  0  0  0  0
  1  3  1  0  0  0  0
  2  4  1  0  0  0  0
  4  5  1  0  0  0  0
  1  6  1  0  0  0  0
  3  7  1  0  0  0  0
  3  5  2  0  0  0  0
  7  8  2  0  0  0  0
  5  9  1  0  0  0  0
  8 10  1  0  0  0  0
  9 10  2  0  0  0  0
  2 11  1  0  0  0  0
  6 12  2  0  0  0  0
 12 13  1  0  0  0  0
  6 14  2  0  0  0  0
 14 15  1  0  0  0  0
M  END
> <NMREDATA_VERSION>
1.1

> <NMREDATA_LEVEL>
0

> <NMREDATA_SOLVENT>
DCCl3/Et2O

> <NMREDATA_TEMPERATURE>
298

> <NMREDATA_FORMULA>
C14H19Rh

> <NMREDATA_SMILES>
C/C=[Rh](=C\C)/C1C(C)Cc2c1cccc2

> <NMREDATA_ASSIGNMENT>
Rh6, -265.00, 6

> <NMREDATA_1D_103Rh>
-265.00, L=Rh6

$$$$
