
  ACD/LABS03242411232D

 22 21  0  0  0  0  0  0  0  0  1 V2000
   18.5333   -2.4667    0.0000 O    0  0  0  0  0  0  0  0  0  0  0  0
   19.1743   -3.5769    0.0000 N    0  0  0  0  0  0  0  0  0  0  0  0
   18.5333   -4.6871    0.0000 C    0  0  0  0  0  0  0  0  0  0  0  0
   17.2514   -4.6871    0.0000 C    0  0  0  0  0  0  0  0  0  0  0  0
   19.1743   -5.7973    0.0000 C    0  0  0  0  0  0  0  0  0  0  0  0
   20.4562   -5.7973    0.0000 C    0  0  0  0  0  0  0  0  0  0  0  0
   18.5333   -6.9075    0.0000 N    0  0  0  0  0  0  0  0  0  0  0  0
   19.1743   -8.0177    0.0000 O    0  0  0  0  0  0  0  0  0  0  0  0
   12.7646  -12.4584    0.0000 O    0  0  0  0  0  0  0  0  0  0  0  0
   14.0466  -12.4584    0.0000 N    0  0  0  0  0  0  0  0  0  0  0  0
   14.6875  -11.3482    0.0000 C    0  0  0  0  0  0  0  0  0  0  0  0
   14.0466  -10.2380    0.0000 C    0  0  0  0  0  0  0  0  0  0  0  0
   15.9695  -11.3482    0.0000 C    0  0  0  0  0  0  0  0  0  0  0  0
   16.6104  -12.4584    0.0000 C    0  0  0  0  0  0  0  0  0  0  0  0
   16.6104  -10.2380    0.0000 N    0  0  0  0  0  0  0  0  0  0  0  0
   17.8923  -10.2380    0.0000 O    0  0  0  0  0  0  0  0  0  0  0  0
   18.5333   -9.1278    0.0000 Rh   0  0  0  0  0  0  0  0  0  0  0  0
   17.4231   -8.4869    0.0000 C    0  0  0  0  0  0  0  0  0  0  0  0
   19.6435   -9.7688    0.0000 O    0  0  0  0  0  0  0  0  0  0  0  0
   19.6435  -11.0507    0.0000 H    0  0  0  0  0  0  0  0  0  0  0  0
   20.7537   -9.1278    0.0000 H    0  0  0  0  0  0  0  0  0  0  0  0
   17.4231   -7.2050    0.0000 C    0  0  0  0  0  0  0  0  0  0  0  0
  1  2  1  0  0  0  0
  2  3  2  0  0  0  0
  3  4  1  0  0  0  0
  3  5  1  0  0  0  0
  5  6  1  0  0  0  0
  5  7  2  0  0  0  0
  7  8  1  0  0  0  0
  9 10  1  0  0  0  0
 10 11  2  0  0  0  0
 11 12  1  0  0  0  0
 11 13  1  0  0  0  0
 13 14  1  0  0  0  0
 13 15  2  0  0  0  0
 15 16  1  0  0  0  0
 16 17  1  0  0  0  0
  8 17  1  0  0  0  0
 17 18  1  0  0  0  0
 17 19  1  0  0  0  0
 19 20  1  0  0  0  0
 19 21  1  0  0  0  0
 18 22  1  0  0  0  0
M  END
> <NMREDATA_VERSION>
1.1

> <NMREDATA_LEVEL>
0

> <NMREDATA_SOLVENT>
D2O

> <NMREDATA_TEMPERATURE>
298

> <NMREDATA_FORMULA>
C10H21N4O5Rh

> <NMREDATA_SMILES>
CC[Rh](O/N=C(/C(=N/O)/C)\C)(O/N=C(/C(=N/O)/C)\C)[OH2]

> <NMREDATA_ASSIGNMENT>
Rh17, 2656.00, 17

> <NMREDATA_1D_103Rh>
2656.00, L=Rh17

$$$$
