
  ACD/LABS03292412462D

 54 61  0  0  0  0  0  0  0  0  1 V2000
   25.8122  -17.1097    0.0000 C    0  0  0  0  0  0  0  0  0  0  0  0
   26.2689  -18.3620    0.0000 C    0  0  0  0  0  0  0  0  0  0  0  0
   26.6692  -16.0929    0.0000 C    0  0  0  0  0  0  0  0  0  0  0  0
   27.5781  -18.5895    0.0000 C    0  0  0  0  0  0  0  0  0  0  0  0
   27.9784  -16.3204    0.0000 C    0  0  0  0  0  0  0  0  0  0  0  0
   28.4349  -17.5722    0.0000 C    0  0  0  0  0  0  0  0  0  0  0  0
   21.4857  -13.4837    0.0000 C    0  0  0  0  0  0  0  0  0  0  0  0
   20.2339  -13.9402    0.0000 C    0  0  0  0  0  0  0  0  0  0  0  0
   22.5030  -14.3405    0.0000 C    0  0  0  0  0  0  0  0  0  0  0  0
   20.0142  -15.2448    0.0000 C    0  0  0  0  0  0  0  0  0  0  0  0
   22.2707  -15.6414    0.0000 C    0  0  0  0  0  0  0  0  0  0  0  0
   21.0267  -16.0933    0.0000 C    0  0  0  0  0  0  0  0  0  0  0  0
   21.5218   -8.7206    0.0000 C    0  0  0  0  0  0  0  0  0  0  0  0
   20.2128   -8.4935    0.0000 C    0  0  0  0  0  0  0  0  0  0  0  0
   21.9785   -9.9729    0.0000 C    0  0  0  0  0  0  0  0  0  0  0  0
   19.3558   -9.5104    0.0000 C    0  0  0  0  0  0  0  0  0  0  0  0
   21.1217  -10.9901    0.0000 C    0  0  0  0  0  0  0  0  0  0  0  0
   19.8125  -10.7626    0.0000 C    0  0  0  0  0  0  0  0  0  0  0  0
   18.6370  -14.5445    0.0000 C    0  0  0  0  0  0  0  0  0  0  0  0
   17.3848  -15.0012    0.0000 C    0  0  0  0  0  0  0  0  0  0  0  0
   18.8645  -13.2353    0.0000 C    0  0  0  0  0  0  0  0  0  0  0  0
   16.3679  -14.1441    0.0000 C    0  0  0  0  0  0  0  0  0  0  0  0
   17.8472  -12.3785    0.0000 C    0  0  0  0  0  0  0  0  0  0  0  0
   16.5954  -12.8350    0.0000 C    0  0  0  0  0  0  0  0  0  0  0  0
   23.7466  -13.0181    0.0000 C    0  0  0  0  0  0  0  0  0  0  0  0
   25.0563  -12.7845    0.0000 C    0  0  0  0  0  0  0  0  0  0  0  0
   22.8875  -12.0086    0.0000 C    0  0  0  0  0  0  0  0  0  0  0  0
   25.5094  -11.5291    0.0000 C    0  0  0  0  0  0  0  0  0  0  0  0
   23.3408  -10.7536    0.0000 C    0  0  0  0  0  0  0  0  0  0  0  0
   24.6499  -10.5199    0.0000 C    0  0  0  0  0  0  0  0  0  0  0  0
   23.6508  -17.9074    0.0000 Rh   0  0  0  0  0  0  0  0  0  0  0  0
   24.9597  -18.1345    0.0000 H    0  0  0  0  0  0  0  0  0  0  0  0
   22.9848  -19.0598    0.0000 H    0  0  0  0  0  0  0  0  0  0  0  0
   21.5782  -12.2420    0.0000 P    0  0  0  0  0  0  0  0  0  0  0  0
   24.3158  -19.0593    0.0000 C    0  0  0  0  0  0  0  0  0  0  0  0
   25.6250  -19.2868    0.0000 C    0  0  0  0  0  0  0  0  0  0  0  0
   23.4590  -20.0765    0.0000 C    0  0  0  0  0  0  0  0  0  0  0  0
   26.0817  -20.5390    0.0000 C    0  0  0  0  0  0  0  0  0  0  0  0
   23.9236  -21.3242    0.0000 C    0  0  0  0  0  0  0  0  0  0  0  0
   25.2247  -21.5559    0.0000 N    0  0  0  0  0  0  0  0  0  0  0  0
   20.7992  -17.4025    0.0000 P    0  0  0  0  0  0  0  0  0  0  0  0
   20.2995  -20.2621    0.0000 C    0  0  0  0  0  0  0  0  0  0  0  0
   19.0551  -20.7143    0.0000 C    0  0  0  0  0  0  0  0  0  0  0  0
   21.3242  -21.1146    0.0000 C    0  0  0  0  0  0  0  0  0  0  0  0
   18.8198  -22.0280    0.0000 C    0  0  0  0  0  0  0  0  0  0  0  0
   21.0967  -22.4237    0.0000 C    0  0  0  0  0  0  0  0  0  0  0  0
   19.8445  -22.8804    0.0000 C    0  0  0  0  0  0  0  0  0  0  0  0
   17.9446  -17.9037    0.0000 C    0  0  0  0  0  0  0  0  0  0  0  0
   17.4870  -19.1513    0.0000 C    0  0  0  0  0  0  0  0  0  0  0  0
   17.0932  -16.8903    0.0000 C    0  0  0  0  0  0  0  0  0  0  0  0
   16.1733  -19.3772    0.0000 C    0  0  0  0  0  0  0  0  0  0  0  0
   15.7792  -17.1164    0.0000 C    0  0  0  0  0  0  0  0  0  0  0  0
   15.3259  -18.3714    0.0000 C    0  0  0  0  0  0  0  0  0  0  0  0
   24.5033  -16.8826    0.0000 S    0  0  0  0  0  0  0  0  0  0  0  0
  1  2  1  0  0  0  0
  1  3  2  0  0  0  0
  2  4  2  0  0  0  0
  3  5  1  0  0  0  0
  4  6  1  0  0  0  0
  5  6  2  0  0  0  0
  7  8  1  0  0  0  0
  7  9  2  0  0  0  0
  8 10  2  0  0  0  0
  9 11  1  0  0  0  0
 10 12  1  0  0  0  0
 11 12  2  0  0  0  0
 13 14  2  0  0  0  0
 13 15  1  0  0  0  0
 14 16  1  0  0  0  0
 15 17  2  0  0  0  0
 16 18  2  0  0  0  0
 17 18  1  0  0  0  0
 19 20  2  0  0  0  0
 19 21  1  0  0  0  0
 20 22  1  0  0  0  0
 21 23  2  0  0  0  0
 22 24  2  0  0  0  0
 23 24  1  0  0  0  0
 25 26  2  0  0  0  0
 25 27  1  0  0  0  0
 26 28  1  0  0  0  0
 27 29  2  0  0  0  0
 28 30  2  0  0  0  0
 29 30  1  0  0  0  0
 31 32  1  0  0  0  0
 31 33  1  0  0  0  0
 31 34  1  0  0  0  0
 27 34  1  0  0  0  0
 21 34  1  0  0  0  0
 17 34  1  0  0  0  0
 35 36  1  0  0  0  0
 35 37  2  0  0  0  0
 36 38  2  0  0  0  0
 37 39  1  0  0  0  0
 38 40  1  0  0  0  0
 39 40  2  0  0  0  0
 31 35  1  0  0  0  0
 31 41  1  0  0  0  0
 42 43  1  0  0  0  0
 42 44  2  0  0  0  0
 43 45  2  0  0  0  0
 44 46  1  0  0  0  0
 45 47  1  0  0  0  0
 46 47  2  0  0  0  0
 41 42  1  0  0  0  0
 48 49  1  0  0  0  0
 48 50  2  0  0  0  0
 49 51  2  0  0  0  0
 50 52  1  0  0  0  0
 51 53  1  0  0  0  0
 52 53  2  0  0  0  0
 41 48  1  0  0  0  0
 12 41  1  0  0  0  0
 31 54  1  0  0  0  0
  1 54  1  0  0  0  0
M  END
> <NMREDATA_VERSION>
1.1

> <NMREDATA_LEVEL>
0

> <NMREDATA_SOLVENT>
toluene-d8

> <NMREDATA_TEMPERATURE>
248

> <NMREDATA_FORMULA>
C47H43NP2RhS

> <NMREDATA_SMILES>
c1ccc(cc1)S[RhH2](P(c1ccccc1)(c1ccccc1)c1ccccc1)(P(c1ccccc1)(c1ccccc1)c1ccccc1)c1ccncc1

> <NMREDATA_ASSIGNMENT>
Rh31, 222.00, 31

> <NMREDATA_1D_103Rh>
222.00, L=Rh31

$$$$
