
  ACD/LABS03282419182D

 38 40  0  0  0  0  0  0  0  0  1 V2000
   27.3192  -12.9555    0.0000 C    0  0  0  0  0  0  0  0  0  0  0  0
   27.3192  -14.2855    0.0000 C    0  0  0  0  0  0  0  0  0  0  0  0
   26.1673  -12.2905    0.0000 C    0  0  0  0  0  0  0  0  0  0  0  0
   26.1673  -14.9505    0.0000 C    0  0  0  0  0  0  0  0  0  0  0  0
   25.0155  -12.9555    0.0000 C    0  0  0  0  0  0  0  0  0  0  0  0
   25.0155  -14.2855    0.0000 C    0  0  0  0  0  0  0  0  0  0  0  0
   24.4586   -3.4203    0.0000 O    0  0  0  0  0  0  0  0  0  0  0  0
   24.4580   -4.7508    0.0000 N    0  0  0  0  0  0  0  0  0  0  0  0
   23.3062   -5.4161    0.0000 C    0  0  0  0  0  0  0  0  0  0  0  0
   22.1550   -4.7515    0.0000 C    0  0  0  0  0  0  0  0  0  0  0  0
   23.3059   -6.7463    0.0000 C    0  0  0  0  0  0  0  0  0  0  0  0
   24.4572   -7.4110    0.0000 C    0  0  0  0  0  0  0  0  0  0  0  0
   22.1541   -7.4117    0.0000 N    0  0  0  0  0  0  0  0  0  0  0  0
   22.1538   -8.7419    0.0000 O    0  0  0  0  0  0  0  0  0  0  0  0
   15.0396   -5.9443    0.0000 O    0  0  0  0  0  0  0  0  0  0  0  0
   16.3653   -5.9525    0.0000 N    0  0  0  0  0  0  0  0  0  0  0  0
   17.0355   -7.0966    0.0000 C    0  0  0  0  0  0  0  0  0  0  0  0
   16.3708   -8.2479    0.0000 C    0  0  0  0  0  0  0  0  0  0  0  0
   18.3612   -7.1048    0.0000 C    0  0  0  0  0  0  0  0  0  0  0  0
   19.0258   -5.9536    0.0000 C    0  0  0  0  0  0  0  0  0  0  0  0
   19.0232   -8.2442    0.0000 N    0  0  0  0  0  0  0  0  0  0  0  0
   20.3410   -8.2478    0.0000 O    0  0  0  0  0  0  0  0  0  0  0  0
   21.0108   -9.3918    0.0000 Rh   0  0  0  0  0  0  0  0  0  0  0  0
   20.6663  -10.6766    0.0000 C    0  0  0  0  0  0  0  0  0  0  0  0
   20.3217  -11.9613    0.0000 N    0  0  0  0  0  0  0  0  0  0  0  0
   23.2029  -11.2169    0.0000 P    0  0  0  0  0  0  0  0  0  0  0  0
   22.9771  -12.5269    0.0000 C    0  0  0  0  0  0  0  0  0  0  0  0
   23.9987  -13.3774    0.0000 C    0  0  0  0  0  0  0  0  0  0  0  0
   21.7296  -12.9864    0.0000 C    0  0  0  0  0  0  0  0  0  0  0  0
   23.7728  -14.6875    0.0000 C    0  0  0  0  0  0  0  0  0  0  0  0
   21.5038  -14.2963    0.0000 C    0  0  0  0  0  0  0  0  0  0  0  0
   22.5254  -15.1469    0.0000 C    0  0  0  0  0  0  0  0  0  0  0  0
   24.4503  -10.7574    0.0000 C    0  0  0  0  0  0  0  0  0  0  0  0
   24.6761   -9.4474    0.0000 C    0  0  0  0  0  0  0  0  0  0  0  0
   25.4720  -11.6080    0.0000 C    0  0  0  0  0  0  0  0  0  0  0  0
   25.9236   -8.9880    0.0000 C    0  0  0  0  0  0  0  0  0  0  0  0
   26.7193  -11.1486    0.0000 C    0  0  0  0  0  0  0  0  0  0  0  0
   26.9452   -9.8386    0.0000 C    0  0  0  0  0  0  0  0  0  0  0  0
  1  2  1  0  0  0  0
  1  3  2  0  0  0  0
  2  4  2  0  0  0  0
  3  5  1  0  0  0  0
  4  6  1  0  0  0  0
  5  6  2  0  0  0  0
  7  8  1  0  0  0  0
  8  9  2  0  0  0  0
  9 10  1  0  0  0  0
  9 11  1  0  0  0  0
 11 12  1  0  0  0  0
 11 13  2  0  0  0  0
 13 14  1  0  0  0  0
 15 16  1  0  0  0  0
 16 17  2  0  0  0  0
 17 18  1  0  0  0  0
 17 19  1  0  0  0  0
 19 20  1  0  0  0  0
 19 21  2  0  0  0  0
 21 22  1  0  0  0  0
 22 23  1  0  0  0  0
 14 23  1  0  0  0  0
 24 25  3  0  0  0  0
 23 24  1  0  0  0  0
 23 26  1  0  0  0  0
 27 28  1  0  0  0  0
 27 29  2  0  0  0  0
 28 30  2  0  0  0  0
 29 31  1  0  0  0  0
 30 32  1  0  0  0  0
 31 32  2  0  0  0  0
 26 27  1  0  0  0  0
 33 34  1  0  0  0  0
 33 35  2  0  0  0  0
 34 36  2  0  0  0  0
 35 37  1  0  0  0  0
 36 38  1  0  0  0  0
 37 38  2  0  0  0  0
 26 33  1  0  0  0  0
  5 26  1  0  0  0  0
M  END
> <NMREDATA_VERSION>
1.1

> <NMREDATA_LEVEL>
0

> <NMREDATA_SOLVENT>
DCCl3

> <NMREDATA_TEMPERATURE>
298

> <NMREDATA_FORMULA>
C27H30N5O4PRh

> <NMREDATA_SMILES>
O/N=C(/C(=N/O[Rh](P(c1ccccc1)(c1ccccc1)c1ccccc1)(O/N=C(/C(=N/O)/C)\C)C#N)/C)\C

> <NMREDATA_ASSIGNMENT>
Rh23, 2308.00, 23

> <NMREDATA_1D_103Rh>
2308.00, L=Rh23

$$$$
