RhMan0925_0094.mol
  ChemDraw01122615522D

 44 58  0  0  0  0  0  0  0  0999 V2000
    1.6214    0.2312    0.0000 Rh   0  0  0  0  0  0  0  0  0  0  0  0
    0.7258    0.6437    0.0000 O    0  0  0  0  0  0  0  0  0  0  0  0
    0.8570   -0.3521    0.0000 O    0  0  0  0  0  0  0  0  0  0  0  0
    0.0320   -0.3521    0.0000 C    0  0  0  0  0  0  0  0  0  0  0  0
   -0.0992    0.6437    0.0000 C    0  0  0  0  0  0  0  0  0  0  0  0
   -0.6825    0.0604    0.0000 C    0  0  0  0  0  0  0  0  0  0  0  0
    2.0911   -0.4374    0.0000 C    0  0  0  0  0  0  0  0  0  0  0  0
    2.4622   -1.0802    0.0000 O    0  0  0  0  0  0  0  0  0  0  0  0
    2.8667    1.3180    0.0000 P    0  0  0  0  0  4  0  0  0  0  0  0
    1.6064    3.1300    0.0000 C    0  0  0  0  0  0  0  0  0  0  0  0
    3.0470    2.2387    0.0000 C    0  0  0  0  0  0  0  0  0  0  0  0
    3.1504    0.8078    0.0000 C    0  0  0  0  0  0  0  0  0  0  0  0
    2.9485    0.0079    0.0000 C    0  0  0  0  0  0  0  0  0  0  0  0
    3.5403   -0.5669    0.0000 C    0  0  0  0  0  0  0  0  0  0  0  0
    4.3340   -0.3418    0.0000 C    0  0  0  0  0  0  0  0  0  0  0  0
    4.5359    0.4581    0.0000 C    0  0  0  0  0  0  0  0  0  0  0  0
    3.9441    1.0329    0.0000 C    0  0  0  0  0  0  0  0  0  0  0  0
    3.5602    1.5927    0.0000 C    0  0  0  0  0  0  0  0  0  0  0  0
    4.3762    1.7142    0.0000 C    0  0  0  0  0  0  0  0  0  0  0  0
    4.6790    2.4816    0.0000 C    0  0  0  0  0  0  0  0  0  0  0  0
    4.1658    3.1276    0.0000 C    0  0  0  0  0  0  0  0  0  0  0  0
    3.3498    3.0061    0.0000 C    0  0  0  0  0  0  0  0  0  0  0  0
    0.8096    2.9160    0.0000 C    0  0  0  0  0  0  0  0  0  0  0  0
    0.5965    2.1191    0.0000 C    0  0  0  0  0  0  0  0  0  0  0  0
    1.1802    1.5360    0.0000 C    0  0  0  0  0  0  0  0  0  0  0  0
    1.9770    1.7500    0.0000 C    0  0  0  0  0  0  0  0  0  0  0  0
    2.1901    2.5470    0.0000 C    0  0  0  0  0  0  0  0  0  0  0  0
   -0.2899    1.6241    0.0000 C    0  0  0  0  0  0  0  0  0  0  0  0
    0.3326    2.1654    0.0000 C    0  0  0  0  0  0  0  0  0  0  0  0
    0.1751    2.9753    0.0000 C    0  0  0  0  0  0  0  0  0  0  0  0
   -0.6050    3.2437    0.0000 C    0  0  0  0  0  0  0  0  0  0  0  0
   -1.2276    2.7023    0.0000 C    0  0  0  0  0  0  0  0  0  0  0  0
   -1.0700    1.8925    0.0000 C    0  0  0  0  0  0  0  0  0  0  0  0
   -2.7260   -1.7580    0.0000 Fe   0  0  0  0  0  0  0  0  0  0  0  0
   -4.6790   -2.1637    0.0000 C    0  0  0  0  0  0  0  0  0  0  0  0
   -4.6790   -2.9887    0.0000 C    0  0  0  0  0  0  0  0  0  0  0  0
   -3.8944   -3.2437    0.0000 C    0  0  0  0  0  0  0  0  0  0  0  0
   -3.4094   -2.5762    0.0000 C    0  0  0  0  0  0  0  0  0  0  0  0
   -3.8944   -1.9088    0.0000 C    0  0  0  0  0  0  0  0  0  0  0  0
   -1.8509   -1.4098    0.0000 C    0  0  0  0  0  0  0  0  0  0  0  0
   -1.8509   -2.2348    0.0000 C    0  0  0  0  0  0  0  0  0  0  0  0
   -1.0662   -2.4897    0.0000 C    0  0  0  0  0  0  0  0  0  0  0  0
   -0.5814   -1.8223    0.0000 C    0  0  0  0  0  0  0  0  0  0  0  0
   -1.0662   -1.1549    0.0000 C    0  0  0  0  0  0  0  0  0  0  0  0
  1  2  1  0  0
  1  3  1  0  0
  3  4  2  0  0
  2  5  1  0  0
  4  6  1  0  0
  5  6  2  0  0
  1  7  1  0  0
  7  8  3  0  0
  1  9  1  0  0
  9 10  1  0  0
  9 11  1  0  0
  9 12  1  0  0
 12 13  2  0  0
 13 14  1  0  0
 14 15  2  0  0
 15 16  1  0  0
 16 17  2  0  0
 17 12  1  0  0
 11 18  2  0  0
 18 19  1  0  0
 19 20  2  0  0
 20 21  1  0  0
 21 22  2  0  0
 22 11  1  0  0
 10 23  2  0  0
 23 24  1  0  0
 24 25  2  0  0
 25 26  1  0  0
 26 27  2  0  0
 27 10  1  0  0
  5 28  1  0  0
 28 29  2  0  0
 29 30  1  0  0
 30 31  2  0  0
 31 32  1  0  0
 32 33  2  0  0
 33 28  1  0  0
 35 36  1  0  0
 36 37  1  0  0
 37 38  1  0  0
 38 39  1  0  0
 39 35  1  0  0
 40 41  1  0  0
 41 42  1  0  0
 42 43  1  0  0
 43 44  1  0  0
 44 40  1  0  0
 40 34  1  0  0
 41 34  1  0  0
 38 34  1  0  0
 39 34  1  0  0
 42 34  1  0  0
 43 34  1  0  0
 44 34  1  0  0
 37 34  1  0  0
 36 34  1  0  0
 35 34  1  0  0
  4 44  1  0  0
M  END
> <NMREDATA_VERSION>
1.1

> <NMREDATA_LEVEL>
0

> <NMREDATA_SOLVENT>
CDCl3

> <NMREDATA_TEMPERATURE>
298

> <NMREDATA_FORMULA>
C38H31FeO3PRh

> <NMREDATA_SMILES>
[O]#C[Rh]1(OC(=CC(=[O]1)C12C3[Fe]4567892(C1C5C34)C1C8C7C6C91)c1ccccc1)P(c1ccccc1)(c1ccccc1)c1ccccc1

> <NMREDATA_ASSIGNMENT>
Rh1, 309.00, 1

> <NMREDATA_1D_103Rh>
309.00, L=Rh1

$$$$
