
  ACD/LABS12112513102D

 41 49  0  0  0  0  0  0  0  0  2 V2000
   14.8844  -10.4953    0.0000 Rh   0  0  0  0  0  0  0  0  0  0  0  0
   13.5258   -6.3390    0.0000 C    0  0  0  0  0  0  0  0  0  0  0  0
   13.5258   -7.6690    0.0000 C    0  0  0  0  0  0  0  0  0  0  0  0
   14.7907   -8.0800    0.0000 C    0  0  0  0  0  0  0  0  0  0  0  0
   15.5724   -7.0040    0.0000 C    0  0  0  0  0  0  0  0  0  0  0  0
   14.7907   -5.9280    0.0000 C    0  3  0  0  0  0  0  0  0  0  0  0
   13.4704  -11.9915    0.0000 C    0  0  0  0  0  0  0  0  0  0  0  0
   13.4704  -13.3215    0.0000 C    0  0  0  0  0  0  0  0  0  0  0  0
   14.7353  -13.7325    0.0000 C    0  0  0  0  0  0  0  0  0  0  0  0
   15.5170  -12.6565    0.0000 C    0  0  0  0  0  0  0  0  0  0  0  0
   14.7353  -11.5805    0.0000 C    0  0  0  0  0  0  0  0  0  0  0  0
   15.2017   -4.6631    0.0000 C    0  0  0  0  0  0  0  0  0  0  0  0
   12.4498   -5.5573    0.0000 C    0  0  0  0  0  0  0  0  0  0  0  0
   12.2290   -7.9645    0.0000 C    0  0  0  0  0  0  0  0  0  0  0  0
   16.8713   -6.7179    0.0000 C    0  0  0  0  0  0  0  0  0  0  0  0
   16.0633   -8.4664    0.0000 C    0  0  0  0  0  0  0  0  0  0  0  0
   11.3247   -6.9893    0.0000 F    0  0  0  0  0  0  0  0  0  0  0  0
   11.8366   -9.2353    0.0000 F    0  0  0  0  0  0  0  0  0  0  0  0
   13.1333   -8.9398    0.0000 F    0  0  0  0  0  0  0  0  0  0  0  0
   11.2348   -6.0982    0.0000 F    0  0  0  0  0  0  0  0  0  0  0  0
   12.5888   -4.2346    0.0000 F    0  0  0  0  0  0  0  0  0  0  0  0
   11.3738   -4.7755    0.0000 F    0  0  0  0  0  0  0  0  0  0  0  0
   14.3117   -3.6748    0.0000 F    0  0  0  0  0  0  0  0  0  0  0  0
   16.5026   -4.3866    0.0000 F    0  0  0  0  0  0  0  0  0  0  0  0
   15.6127   -3.3982    0.0000 F    0  0  0  0  0  0  0  0  0  0  0  0
   17.7686   -7.6996    0.0000 F    0  0  0  0  0  0  0  0  0  0  0  0
   17.2729   -5.4499    0.0000 F    0  0  0  0  0  0  0  0  0  0  0  0
   18.1701   -6.4317    0.0000 F    0  0  0  0  0  0  0  0  0  0  0  0
   17.0343   -7.5575    0.0000 C    0  0  0  0  0  0  0  0  0  0  0  0
   16.3650   -9.7617    0.0000 F    0  0  0  0  0  0  0  0  0  0  0  0
   17.3360   -8.8528    0.0000 F    0  0  0  0  0  0  0  0  0  0  0  0
   16.0253  -11.2568    0.0000 C    0  0  0  0  0  0  0  0  0  0  0  0
   16.8275  -12.8839    0.0000 C    0  0  0  0  0  0  0  0  0  0  0  0
   15.1463  -14.9974    0.0000 C    0  0  0  0  0  0  0  0  0  0  0  0
   12.3944  -14.1033    0.0000 C    0  0  0  0  0  0  0  0  0  0  0  0
   12.2346  -11.5000    0.0000 C    0  0  0  0  0  0  0  0  0  0  0  0
   27.3532   -9.1653    0.0000 B    0  5  0  0  0  0  0  0  0  0  0  0
   27.3532  -10.4953    0.0000 F    0  0  0  0  0  0  0  0  0  0  0  0
   26.2014   -8.5003    0.0000 F    0  0  0  0  0  0  0  0  0  0  0  0
   28.5050   -8.5003    0.0000 F    0  0  0  0  0  0  0  0  0  0  0  0
   27.3532   -7.8353    0.0000 F    0  0  0  0  0  0  0  0  0  0  0  0
  2  3  1  0  0  0  0
  3  4  1  0  0  0  0
  4  5  1  0  0  0  0
  5  6  1  0  0  0  0
  6  2  1  0  0  0  0
  7  8  1  0  0  0  0
  8  9  1  0  0  0  0
  9 10  1  0  0  0  0
 10 11  1  0  0  0  0
 11  7  1  0  0  0  0
  4  1  1  0  0  0  0
  3  1  1  0  0  0  0
  5  1  1  0  0  0  0
  2  1  1  0  0  0  0
 11  1  1  0  0  0  0
 10  1  1  0  0  0  0
  8  1  1  0  0  0  0
  7  1  1  0  0  0  0
  6 12  1  0  0  0  0
  2 13  1  0  0  0  0
  3 14  1  0  0  0  0
  5 15  1  0  0  0  0
  4 16  1  0  0  0  0
  6  1  1  0  0  0  0
 14 17  1  0  0  0  0
 14 18  1  0  0  0  0
 14 19  1  0  0  0  0
 13 20  1  0  0  0  0
 13 21  1  0  0  0  0
 13 22  1  0  0  0  0
 12 23  1  0  0  0  0
 12 24  1  0  0  0  0
 12 25  1  0  0  0  0
 15 26  1  0  0  0  0
 15 27  1  0  0  0  0
 15 28  1  0  0  0  0
 16 29  1  0  0  0  0
 16 30  1  0  0  0  0
 16 31  1  0  0  0  0
 11 32  1  0  0  0  0
 10 33  1  0  0  0  0
  9 34  1  0  0  0  0
  8 35  1  0  0  0  0
  7 36  1  0  0  0  0
  9  1  1  0  0  0  0
 37 38  1  0  0  0  0
 37 39  1  0  0  0  0
 37 40  1  0  0  0  0
 37 41  1  0  0  0  0
M  END
> <NMREDATA_VERSION>
1.1

> <NMREDATA_LEVEL>
0

> <NMREDATA_SOLVENT>
CD2Cl2

> <NMREDATA_TEMPERATURE>
298

> <NMREDATA_FORMULA>
C21H18BF18Rh

> <NMREDATA_SMILES>
CC(C12C3([Rh]4567892(C1(C(F)(F)F)C5(C34C(F)(F)F)C(F)(F)F)C1(C8(C7(C6(C91C)C)C)C)C)C(F)(F)F)(F)F.F[B](F)(F)F

> <NMREDATA_ASSIGNMENT>
Rh1, -939.00, 1

> <NMREDATA_1D_103Rh>
-939.00, L=Rh1

$$$$
