
  ACD/LABS12172514212D

 21 20  0  0  0  0  0  0  0  0 12 V2000
   20.0235   -6.0232    0.0000 Rh   0  5  0  0  0  0  0  0  0  0  0  0
   18.8717   -5.3582    0.0000 O    0  0  0  0  0  0  0  0  0  0  0  0
   21.1753   -5.3582    0.0000 O    0  0  0  0  0  0  0  0  0  0  0  0
   20.0235   -4.6932    0.0000 O    0  0  0  0  0  0  0  0  0  0  0  0
   21.1753   -6.6882    0.0000 O    0  0  0  0  0  0  0  0  0  0  0  0
   22.3271   -6.0232    0.0000 H    0  0  0  0  0  0  0  0  0  0  0  0
   22.4600   -7.0324    0.0000 H    0  0  0  0  0  0  0  0  0  0  0  0
   21.1753   -4.0282    0.0000 H    0  0  0  0  0  0  0  0  0  0  0  0
   22.5053   -5.3582    0.0000 H    0  0  0  0  0  0  0  0  0  0  0  0
   20.3677   -3.4085    0.0000 H    0  0  0  0  0  0  0  0  0  0  0  0
   19.3585   -3.5414    0.0000 H    0  0  0  0  0  0  0  0  0  0  0  0
   18.2067   -4.2064    0.0000 H    0  0  0  0  0  0  0  0  0  0  0  0
   17.5870   -5.7024    0.0000 H    0  0  0  0  0  0  0  0  0  0  0  0
   18.8717   -6.6882    0.0000 O    0  0  0  0  0  0  0  0  0  0  0  0
   20.0235   -7.3532    0.0000 O    0  0  0  0  0  0  0  0  0  0  0  0
   18.8717   -8.0182    0.0000 N    0  3  0  0  0  0  0  0  0  0  0  0
   20.0235   -8.6832    0.0000 O    0  0  0  0  0  0  0  0  0  0  0  0
   17.7199   -8.6832    0.0000 O    0  5  0  0  0  0  0  0  0  0  0  0
   21.1753   -8.0182    0.0000 N    0  3  0  0  0  0  0  0  0  0  0  0
   22.3271   -7.3532    0.0000 O    0  0  0  0  0  0  0  0  0  0  0  0
   21.1753   -9.3482    0.0000 O    0  5  0  0  0  0  0  0  0  0  0  0
  1  2  1  0  0  0  0
  1  3  1  0  0  0  0
  1  4  1  0  0  0  0
  1  5  1  0  0  0  0
  5  6  1  0  0  0  0
  5  7  1  0  0  0  0
  3  8  1  0  0  0  0
  3  9  1  0  0  0  0
  4 10  1  0  0  0  0
  4 11  1  0  0  0  0
  2 12  1  0  0  0  0
  2 13  1  0  0  0  0
  1 14  1  0  0  0  0
  1 15  1  0  0  0  0
 16 17  2  0  0  0  0
 16 18  1  0  0  0  0
 14 16  1  0  0  0  0
 19 20  2  0  0  0  0
 19 21  1  0  0  0  0
 15 19  1  0  0  0  0
M  END
> <NMREDATA_VERSION>
1.1

> <NMREDATA_LEVEL>
0

> <NMREDATA_SOLVENT>
H2O/HNO3

> <NMREDATA_TEMPERATURE>
303

> <NMREDATA_FORMULA>
H12N2O10Rh

> <NMREDATA_SMILES>
ON(=O)O[Rh](ON(=O)O)([OH2])([OH2])([OH2])[OH2]

> <NMREDATA_ASSIGNMENT>
Rh1, 9933.00, 1

> <NMREDATA_1D_103Rh>
9933.00, L=Rh1

$$$$
