
  ACD/LABS12142511562D

 66 74  0  0  0  0  0  0  0  0  2 V2000
   16.5972  -10.1055    0.0000 Rh   0  0  0  0  0  0  0  0  0  0  0  0
   15.4454  -10.7705    0.0000 P    0  0  0  0  0  5  0  0  0  0  0  0
   15.4454   -9.4405    0.0000 P    0  0  0  0  0  5  0  0  0  0  0  0
   17.7490  -10.7705    0.0000 P    0  0  0  0  0  5  0  0  0  0  0  0
   17.7490   -9.4405    0.0000 P    0  0  0  0  0  5  0  0  0  0  0  0
   11.6771   -6.6697    0.0000 C    0  0  0  0  0  0  0  0  0  0  0  0
   11.6771   -7.9997    0.0000 C    0  0  0  0  0  0  0  0  0  0  0  0
   12.8289   -8.6647    0.0000 C    0  5  0  0  0  0  0  0  0  0  0  0
   13.9807   -7.9997    0.0000 C    0  0  0  0  0  0  0  0  0  0  0  0
   13.9807   -6.6697    0.0000 C    0  0  0  0  0  0  0  0  0  0  0  0
   12.8289   -6.0047    0.0000 C    0  0  0  0  0  0  0  0  0  0  0  0
   14.7250   -5.3951    0.0000 C    0  0  0  0  0  0  0  0  0  0  0  0
   14.7250   -6.7251    0.0000 C    0  0  0  0  0  0  0  0  0  0  0  0
   15.8768   -7.3901    0.0000 C    0  0  0  0  0  0  0  0  0  0  0  0
   17.0286   -6.7251    0.0000 C    0  0  0  0  0  0  0  0  0  0  0  0
   17.0286   -5.3951    0.0000 C    0  0  0  0  0  0  0  0  0  0  0  0
   15.8768   -4.7301    0.0000 C    0  0  0  0  0  0  0  0  0  0  0  0
   17.9946   -6.0601    0.0000 C    0  0  0  0  0  0  0  0  0  0  0  0
   17.9946   -7.3901    0.0000 C    0  0  0  0  0  0  0  0  0  0  0  0
   19.1464   -8.0551    0.0000 C    0  0  0  0  0  0  0  0  0  0  0  0
   20.2982   -7.3901    0.0000 C    0  0  0  0  0  0  0  0  0  0  0  0
   20.2982   -6.0601    0.0000 C    0  0  0  0  0  0  0  0  0  0  0  0
   19.1464   -5.3951    0.0000 C    0  0  0  0  0  0  0  0  0  0  0  0
   20.2112   -7.7780    0.0000 C    0  0  0  0  0  0  0  0  0  0  0  0
   20.2112   -9.1080    0.0000 C    0  0  0  0  0  0  0  0  0  0  0  0
   21.3631   -9.7730    0.0000 C    0  0  0  0  0  0  0  0  0  0  0  0
   22.5149   -9.1080    0.0000 C    0  0  0  0  0  0  0  0  0  0  0  0
   22.5149   -7.7780    0.0000 C    0  0  0  0  0  0  0  0  0  0  0  0
   21.3631   -7.1130    0.0000 C    0  0  0  0  0  0  0  0  0  0  0  0
   18.1608  -12.4330    0.0000 C    0  0  0  0  0  0  0  0  0  0  0  0
   18.1608  -13.7630    0.0000 C    0  0  0  0  0  0  0  0  0  0  0  0
   20.4644  -13.7630    0.0000 C    0  0  0  0  0  0  0  0  0  0  0  0
   20.4644  -12.4330    0.0000 C    0  0  0  0  0  0  0  0  0  0  0  0
   19.3126  -11.7680    0.0000 C    0  0  0  0  0  0  0  0  0  0  0  0
   15.4454  -13.2089    0.0000 C    0  0  0  0  0  0  0  0  0  0  0  0
   15.4454  -14.5389    0.0000 C    0  0  0  0  0  0  0  0  0  0  0  0
   16.5972  -15.2039    0.0000 C    0  0  0  0  0  0  0  0  0  0  0  0
   17.7490  -14.5389    0.0000 C    0  0  0  0  0  0  0  0  0  0  0  0
   17.7490  -13.2089    0.0000 C    0  0  0  0  0  0  0  0  0  0  0  0
   16.5972  -12.5439    0.0000 C    0  0  0  0  0  0  0  0  0  0  0  0
   12.0096  -13.2089    0.0000 C    0  0  0  0  0  0  0  0  0  0  0  0
   12.0096  -14.5389    0.0000 C    0  0  0  0  0  0  0  0  0  0  0  0
   13.1614  -15.2039    0.0000 C    0  0  0  0  0  0  0  0  0  0  0  0
   14.3132  -14.5389    0.0000 C    0  0  0  0  0  0  0  0  0  0  0  0
   14.3132  -13.2089    0.0000 C    0  0  0  0  0  0  0  0  0  0  0  0
   13.1614  -12.5439    0.0000 C    0  0  0  0  0  0  0  0  0  0  0  0
    8.1858  -11.9897    0.0000 C    0  0  0  0  0  0  0  0  0  0  0  0
    8.1858  -13.3197    0.0000 C    0  0  0  0  0  0  0  0  0  0  0  0
    9.3376  -13.9847    0.0000 C    0  0  0  0  0  0  0  0  0  0  0  0
   10.4894  -13.3197    0.0000 C    0  0  0  0  0  0  0  0  0  0  0  0
   10.4894  -11.9897    0.0000 C    0  0  0  0  0  0  0  0  0  0  0  0
    9.3376  -11.3247    0.0000 C    0  0  0  0  0  0  0  0  0  0  0  0
   19.0790  -10.7705    0.0000 C    0  0  0  0  0  0  0  0  0  0  0  0
   19.0337   -9.7848    0.0000 C    0  0  0  0  0  0  0  0  0  0  0  0
   14.1154  -10.7705    0.0000 C    0  0  0  0  0  0  0  0  0  0  0  0
   13.4385   -9.3297    0.0000 C    0  0  0  0  0  0  0  0  0  0  0  0
   10.5252   -6.0047    0.0000 C    0  0  0  0  0  0  0  0  0  0  0  0
   15.8768   -3.4001    0.0000 C    0  0  0  0  0  0  0  0  0  0  0  0
   19.1464   -4.0651    0.0000 C    0  0  0  0  0  0  0  0  0  0  0  0
   23.6667   -7.1130    0.0000 C    0  0  0  0  0  0  0  0  0  0  0  0
   16.5972  -16.5339    0.0000 C    0  0  0  0  0  0  0  0  0  0  0  0
   13.1614  -16.5339    0.0000 C    0  0  0  0  0  0  0  0  0  0  0  0
    7.0340  -13.9847    0.0000 C    0  0  0  0  0  0  0  0  0  0  0  0
   19.3126  -14.4280    0.0000 C    0  0  0  0  0  0  0  0  0  0  0  0
   19.3126  -15.7580    0.0000 C    0  0  0  0  0  0  0  0  0  0  0  0
   25.9590  -10.3355    0.0000 Na   0  3  0  0  0  0  0  0  0  0  0  0
  1  2  1  0  0  0  0
  1  3  1  0  0  0  0
  1  4  1  0  0  0  0
  1  5  1  0  0  0  0
  6  7  2  0  0  0  0
  7  8  1  0  0  0  0
  8  9  2  0  0  0  0
  9 10  1  0  0  0  0
 10 11  2  0  0  0  0
 11  6  1  0  0  0  0
 12 13  2  0  0  0  0
 13 14  1  0  0  0  0
 14 15  2  0  0  0  0
 15 16  1  0  0  0  0
 16 17  2  0  0  0  0
 17 12  1  0  0  0  0
 18 19  2  0  0  0  0
 19 20  1  0  0  0  0
 20 21  2  0  0  0  0
 21 22  1  0  0  0  0
 22 23  2  0  0  0  0
 23 18  1  0  0  0  0
 24 25  2  0  0  0  0
 25 26  1  0  0  0  0
 26 27  2  0  0  0  0
 27 28  1  0  0  0  0
 28 29  2  0  0  0  0
 29 24  1  0  0  0  0
 30 31  2  0  0  0  0
 31 64  1  0  0  0  0
 64 32  2  0  0  0  0
 32 33  1  0  0  0  0
 33 34  2  0  0  0  0
 34 30  1  0  0  0  0
 35 36  2  0  0  0  0
 36 37  1  0  0  0  0
 37 38  2  0  0  0  0
 38 39  1  0  0  0  0
 39 40  2  0  0  0  0
 40 35  1  0  0  0  0
 41 42  2  0  0  0  0
 42 43  1  0  0  0  0
 43 44  2  0  0  0  0
 44 45  1  0  0  0  0
 45 46  2  0  0  0  0
 46 41  1  0  0  0  0
 47 48  2  0  0  0  0
 48 49  1  0  0  0  0
 49 50  2  0  0  0  0
 50 51  1  0  0  0  0
 51 52  2  0  0  0  0
 52 47  1  0  0  0  0
 51  2  1  0  0  0  0
 46  2  1  0  0  0  0
 40  4  1  0  0  0  0
 34  4  1  0  0  0  0
 20  5  1  0  0  0  0
 25  5  1  0  0  0  0
 14  3  1  0  0  0  0
  9  3  1  0  0  0  0
  4 53  1  0  0  0  0
 54  5  1  0  0  0  0
  2 55  1  0  0  0  0
  3 56  1  0  0  0  0
 55 56  1  0  0  0  0
 53 54  1  0  0  0  0
  6 57  1  0  0  0  0
 17 58  1  0  0  0  0
 23 59  1  0  0  0  0
 28 60  1  0  0  0  0
 37 61  1  0  0  0  0
 43 62  1  0  0  0  0
 48 63  1  0  0  0  0
 64 65  1  0  0  0  0
M  END
> <NMREDATA_VERSION>
1.1

> <NMREDATA_LEVEL>
0

> <NMREDATA_SOLVENT>
THF-d8

> <NMREDATA_TEMPERATURE>
298

> <NMREDATA_FORMULA>
C60H69NaP4Rh

> <NMREDATA_SMILES>
Cc1ccc(cc1)P1(CCP([Rh]21P(CCP2(c1ccc(cc1)C)c1ccc(cc1)C)(c1ccc(cc1)C)c1ccc(cc1)C)(c1ccc(cc1)C)c1ccc(cc1)C)c1ccc(cc1)C.[NaH]

> <NMREDATA_ASSIGNMENT>
Rh1, -936.00, 1

> <NMREDATA_1D_103Rh>
-936.00, L=Rh1

$$$$
