RhMan0925_0174.mol
  ChemDraw12172518052D

 75 89  0  0  0  0  0  0  0  0999 V2000
   -0.7311    0.3391    0.0000 Rh   0  0  0  0  0  0  0  0  0  0  0  0
   -0.7311   -0.4859    0.0000 P    0  0  0  0  0  0  0  0  0  0  0  0
    0.0939   -0.4859    0.0000 N    0  0  0  0  0  0  0  0  0  0  0  0
   -1.4455   -0.8984    0.0000 O    0  0  0  0  0  0  0  0  0  0  0  0
   -0.7311   -1.3109    0.0000 O    0  0  0  0  0  0  0  0  0  0  0  0
    0.5064    0.2285    0.0000 C    0  0  0  0  0  0  0  0  0  0  0  0
    0.5064   -1.2004    0.0000 C    0  0  0  0  0  0  0  0  0  0  0  0
   -2.0550   -1.1955    0.0000 C    0  0  0  0  0  0  0  0  0  0  0  0
   -0.8815   -2.0682    0.0000 C    0  0  0  0  0  0  0  0  0  0  0  0
   -1.6338   -2.3089    0.0000 C    0  0  0  0  0  0  0  0  0  0  0  0
   -2.2055   -1.7974    0.0000 C    0  0  0  0  0  0  0  0  0  0  0  0
   -2.5010   -0.7644    0.0000 C    0  0  0  0  0  0  0  0  0  0  0  0
   -3.0974   -0.9350    0.0000 C    0  0  0  0  0  0  0  0  0  0  0  0
   -3.2478   -1.5368    0.0000 C    0  0  0  0  0  0  0  0  0  0  0  0
   -2.8019   -1.9680    0.0000 C    0  0  0  0  0  0  0  0  0  0  0  0
   -3.5433   -0.5038    0.0000 C    0  0  0  0  0  0  0  0  0  0  0  0
   -4.1397   -0.6744    0.0000 C    0  0  0  0  0  0  0  0  0  0  0  0
   -4.2902   -1.2762    0.0000 C    0  0  0  0  0  0  0  0  0  0  0  0
   -3.8442   -1.7074    0.0000 C    0  0  0  0  0  0  0  0  0  0  0  0
   -1.8014   -3.0807    0.0000 C    0  0  0  0  0  0  0  0  0  0  0  0
   -1.2168   -3.6118    0.0000 C    0  0  0  0  0  0  0  0  0  0  0  0
   -0.4646   -3.3711    0.0000 C    0  0  0  0  0  0  0  0  0  0  0  0
   -0.2969   -2.5993    0.0000 C    0  0  0  0  0  0  0  0  0  0  0  0
   -1.3845   -4.3837    0.0000 C    0  0  0  0  0  0  0  0  0  0  0  0
   -0.7999   -4.9148    0.0000 C    0  0  0  0  0  0  0  0  0  0  0  0
   -0.0476   -4.6741    0.0000 C    0  0  0  0  0  0  0  0  0  0  0  0
    0.1200   -3.9022    0.0000 C    0  0  0  0  0  0  0  0  0  0  0  0
   -2.9982    1.3140    0.0000 P    0  0  0  0  0  0  0  0  0  0  0  0
   -3.3010    0.5466    0.0000 N    0  0  0  0  0  0  0  0  0  0  0  0
   -3.1197    2.1300    0.0000 O    0  0  0  0  0  0  0  0  0  0  0  0
   -3.7656    1.6168    0.0000 O    0  0  0  0  0  0  0  0  0  0  0  0
   -4.1170    0.4251    0.0000 C    0  0  0  0  0  0  0  0  0  0  0  0
   -3.1724    2.8060    0.0000 C    0  0  0  0  0  0  0  0  0  0  0  0
   -4.4148    2.0346    0.0000 C    0  0  0  0  0  0  0  0  0  0  0  0
   -4.3626    2.8227    0.0000 C    0  0  0  0  0  0  0  0  0  0  0  0
   -3.6770    3.1668    0.0000 C    0  0  0  0  0  0  0  0  0  0  0  0
   -2.6076    3.0626    0.0000 C    0  0  0  0  0  0  0  0  0  0  0  0
   -2.5474    3.6800    0.0000 C    0  0  0  0  0  0  0  0  0  0  0  0
   -3.0520    4.0408    0.0000 C    0  0  0  0  0  0  0  0  0  0  0  0
   -3.6168    3.7842    0.0000 C    0  0  0  0  0  0  0  0  0  0  0  0
   -1.9826    3.9366    0.0000 C    0  0  0  0  0  0  0  0  0  0  0  0
   -1.9225    4.5540    0.0000 C    0  0  0  0  0  0  0  0  0  0  0  0
   -2.4270    4.9148    0.0000 C    0  0  0  0  0  0  0  0  0  0  0  0
   -2.9918    4.6582    0.0000 C    0  0  0  0  0  0  0  0  0  0  0  0
   -5.0191    3.2620    0.0000 C    0  0  0  0  0  0  0  0  0  0  0  0
   -5.7277    2.9131    0.0000 C    0  0  0  0  0  0  0  0  0  0  0  0
   -5.7798    2.1250    0.0000 C    0  0  0  0  0  0  0  0  0  0  0  0
   -5.1234    1.6858    0.0000 C    0  0  0  0  0  0  0  0  0  0  0  0
   -6.3841    3.3523    0.0000 C    0  0  0  0  0  0  0  0  0  0  0  0
   -7.0927    3.0034    0.0000 C    0  0  0  0  0  0  0  0  0  0  0  0
   -7.1449    2.2153    0.0000 C    0  0  0  0  0  0  0  0  0  0  0  0
   -6.4884    1.7761    0.0000 C    0  0  0  0  0  0  0  0  0  0  0  0
   -2.7878   -0.0994    0.0000 C    0  0  0  0  0  0  0  0  0  0  0  0
    0.0212    0.9709    0.0000 C    0  0  0  0  0  0  0  0  0  0  0  0
    0.7966    0.6892    0.0000 C    0  0  0  0  0  0  0  0  0  0  0  0
    1.4283    1.2198    0.0000 C    0  0  0  0  0  0  0  0  0  0  0  0
    1.2846    2.0322    0.0000 C    0  0  0  0  0  0  0  0  0  0  0  0
    0.5092    2.3140    0.0000 C    0  0  0  0  0  0  0  0  0  0  0  0
   -0.1225    1.7833    0.0000 C    0  0  0  0  0  0  0  0  0  0  0  0
    1.1643   -0.0493    0.0000 C    0  0  0  0  0  0  0  0  0  0  0  0
    1.9612   -0.2629    0.0000 C    0  0  0  0  0  0  0  0  0  0  0  0
    2.5446    0.3205    0.0000 C    0  0  0  0  0  0  0  0  0  0  0  0
    2.1747   -1.0597    0.0000 N    0  0  0  0  0  0  0  0  0  0  0  0
    1.5914   -1.6431    0.0000 O    0  0  0  0  0  0  0  0  0  0  0  0
    1.8049   -2.4400    0.0000 C    0  0  0  0  0  0  0  0  0  0  0  0
    3.3415    0.1070    0.0000 O    0  0  0  0  0  0  0  0  0  0  0  0
    2.3310    1.1174    0.0000 O    0  0  0  0  0  0  0  0  0  0  0  0
    3.9248    0.6904    0.0000 C    0  0  0  0  0  0  0  0  0  0  0  0
    6.4304   -0.5637    0.0000 Sb   0  5  0  0  0  0  0  0  0  0  0  0
    6.4304   -1.3887    0.0000 F    0  0  0  0  0  0  0  0  0  0  0  0
    5.7159   -0.1512    0.0000 F    0  0  0  0  0  0  0  0  0  0  0  0
    7.1449   -0.1512    0.0000 F    0  0  0  0  0  0  0  0  0  0  0  0
    6.4304    0.2613    0.0000 F    0  0  0  0  0  0  0  0  0  0  0  0
    7.1449   -0.9762    0.0000 F    0  0  0  0  0  0  0  0  0  0  0  0
    5.7159   -0.9762    0.0000 F    0  0  0  0  0  0  0  0  0  0  0  0
  1  2  1  0  0
  2  3  1  0  0
  2  4  1  0  0
  2  5  1  0  0
  3  6  1  0  0
  3  7  1  0  0
  4  8  1  0  0
  5  9  1  0  0
  9 10  2  0  0
 10 11  1  0  0
 11  8  2  0  0
  8 12  1  0  0
 12 13  2  0  0
 13 14  1  0  0
 14 15  2  0  0
 15 11  1  0  0
 13 16  1  0  0
 16 17  2  0  0
 17 18  1  0  0
 18 19  2  0  0
 19 14  1  0  0
 10 20  1  0  0
 20 21  2  0  0
 21 22  1  0  0
 22 23  2  0  0
 23  9  1  0  0
 21 24  1  0  0
 24 25  2  0  0
 25 26  1  0  0
 26 27  2  0  0
 27 22  1  0  0
 28 29  1  0  0
 28 30  1  0  0
 28 31  1  0  0
 29 32  1  0  0
 30 33  1  0  0
 31 34  1  0  0
 34 35  2  0  0
 35 36  1  0  0
 36 33  2  0  0
 33 37  1  0  0
 37 38  2  0  0
 38 39  1  0  0
 39 40  2  0  0
 40 36  1  0  0
 38 41  1  0  0
 41 42  2  0  0
 42 43  1  0  0
 43 44  2  0  0
 44 39  1  0  0
 35 45  1  0  0
 45 46  2  0  0
 46 47  1  0  0
 47 48  2  0  0
 48 34  1  0  0
 46 49  1  0  0
 49 50  2  0  0
 50 51  1  0  0
 51 52  2  0  0
 52 47  1  0  0
 29 53  1  0  0
 28  1  1  0  0
 54  1  1  0  0
 54 55  1  0  0
 55 56  1  0  0
 56 57  1  0  0
 57 58  1  0  0
 58 59  1  0  0
 59 54  1  0  0
 55  1  1  0  0
 59  1  1  0  0
 58  1  1  0  0
 57  1  1  0  0
 56  1  1  0  0
 55 60  1  0  0
 60 61  1  0  0
 61 62  1  0  0
 61 63  1  0  0
 63 64  1  0  0
 64 65  1  0  0
 62 66  1  0  0
 62 67  2  0  0
 66 68  1  0  0
 69 70  1  0  0
 69 71  1  0  0
 69 72  1  0  0
 69 73  1  0  0
 69 74  1  0  0
 69 75  1  0  0
M  END
> <NMREDATA_VERSION>
1.1

> <NMREDATA_LEVEL>
0

> <NMREDATA_SOLVENT>
CD2Cl2

> <NMREDATA_TEMPERATURE>
297

> <NMREDATA_FORMULA>
C55H53F6N3O7P2RhSb

> <NMREDATA_SMILES>
F[Sb](F)(F)(F)(F)F.CONC(C(=O)OC)CC12C3[Rh]4562(C1C5C6C34)(P1(Oc2cc3ccccc3cc2-c2c(O1)cc1ccccc1c2)N(C)C)P1(Oc2cc3ccccc3cc2-c2c(O1)cc1ccccc1c2)N(C)C

> <NMREDATA_ASSIGNMENT>
Rh1, -849.00, 1

> <NMREDATA_1D_103Rh>
-849.00, L=Rh1

$$$$
