
  ACD/LABS12172514212D

 21 20  0  0  0  0  0  0  0  0 12 V2000
   19.8861   -5.4162    0.0000 Rh   0  5  0  0  0  0  0  0  0  0  0  0
   18.7343   -4.7512    0.0000 O    0  0  0  0  0  0  0  0  0  0  0  0
   21.0379   -4.7512    0.0000 O    0  0  0  0  0  0  0  0  0  0  0  0
   21.0379   -6.0812    0.0000 O    0  0  0  0  0  0  0  0  0  0  0  0
   18.7343   -6.0812    0.0000 O    0  0  0  0  0  0  0  0  0  0  0  0
   22.1897   -5.4162    0.0000 H    0  0  0  0  0  0  0  0  0  0  0  0
   22.3226   -6.4255    0.0000 H    0  0  0  0  0  0  0  0  0  0  0  0
   21.0379   -3.4212    0.0000 H    0  0  0  0  0  0  0  0  0  0  0  0
   22.3679   -4.7512    0.0000 H    0  0  0  0  0  0  0  0  0  0  0  0
   18.0693   -3.5994    0.0000 H    0  0  0  0  0  0  0  0  0  0  0  0
   17.4496   -5.0954    0.0000 H    0  0  0  0  0  0  0  0  0  0  0  0
   18.3900   -7.3659    0.0000 H    0  0  0  0  0  0  0  0  0  0  0  0
   17.4043   -6.0812    0.0000 H    0  0  0  0  0  0  0  0  0  0  0  0
   19.8861   -6.7462    0.0000 O    0  0  0  0  0  0  0  0  0  0  0  0
   19.8861   -4.0862    0.0000 O    0  0  0  0  0  0  0  0  0  0  0  0
   21.0379   -7.4112    0.0000 N    0  3  0  0  0  0  0  0  0  0  0  0
   22.1897   -6.7462    0.0000 O    0  0  0  0  0  0  0  0  0  0  0  0
   21.0379   -8.7412    0.0000 O    0  5  0  0  0  0  0  0  0  0  0  0
   18.7343   -3.4212    0.0000 N    0  3  0  0  0  0  0  0  0  0  0  0
   17.5825   -4.0862    0.0000 O    0  0  0  0  0  0  0  0  0  0  0  0
   18.7343   -2.0912    0.0000 O    0  5  0  0  0  0  0  0  0  0  0  0
  1  2  1  0  0  0  0
  1  3  1  0  0  0  0
  1  4  1  0  0  0  0
  1  5  1  0  0  0  0
  4  6  1  0  0  0  0
  4  7  1  0  0  0  0
  3  8  1  0  0  0  0
  3  9  1  0  0  0  0
  2 10  1  0  0  0  0
  2 11  1  0  0  0  0
  5 12  1  0  0  0  0
  5 13  1  0  0  0  0
  1 14  1  0  0  0  0
  1 15  1  0  0  0  0
 16 17  2  0  0  0  0
 16 18  1  0  0  0  0
 14 16  1  0  0  0  0
 19 20  2  0  0  0  0
 19 21  1  0  0  0  0
 15 19  1  0  0  0  0
M  END
> <NMREDATA_VERSION>
1.1

> <NMREDATA_LEVEL>
0

> <NMREDATA_SOLVENT>
H2O/HNO3

> <NMREDATA_TEMPERATURE>
303

> <NMREDATA_FORMULA>
H12N2O10Rh

> <NMREDATA_SMILES>
ON(=O)O[Rh](ON(=O)O)([OH2])([OH2])([OH2])[OH2]

> <NMREDATA_ASSIGNMENT>
Rh1, 9929.00, 1

> <NMREDATA_1D_103Rh>
9929.00, L=Rh1

$$$$
