RhMan0925_0172.mol
  ChemDraw12172517592D

 76 85  0  0  0  0  0  0  0  0999 V2000
    0.3071    0.3391    0.0000 Rh   0  0  0  0  0  0  0  0  0  0  0  0
    0.3071   -0.4859    0.0000 P    0  0  0  0  0  0  0  0  0  0  0  0
    1.1321   -0.4859    0.0000 N    0  0  0  0  0  0  0  0  0  0  0  0
   -0.4074   -0.8984    0.0000 O    0  0  0  0  0  0  0  0  0  0  0  0
    0.3071   -1.3109    0.0000 O    0  0  0  0  0  0  0  0  0  0  0  0
    1.5446    0.2285    0.0000 C    0  0  0  0  0  0  0  0  0  0  0  0
    1.5446   -1.2004    0.0000 C    0  0  0  0  0  0  0  0  0  0  0  0
   -1.0169   -1.1955    0.0000 C    0  0  0  0  0  0  0  0  0  0  0  0
    0.1566   -2.0682    0.0000 C    0  0  0  0  0  0  0  0  0  0  0  0
   -0.5957   -2.3089    0.0000 C    0  0  0  0  0  0  0  0  0  0  0  0
   -1.1674   -1.7974    0.0000 C    0  0  0  0  0  0  0  0  0  0  0  0
   -1.4629   -0.7644    0.0000 C    0  0  0  0  0  0  0  0  0  0  0  0
   -2.0593   -0.9350    0.0000 C    0  0  0  0  0  0  0  0  0  0  0  0
   -2.2097   -1.5368    0.0000 C    0  0  0  0  0  0  0  0  0  0  0  0
   -1.7638   -1.9680    0.0000 C    0  0  0  0  0  0  0  0  0  0  0  0
   -2.5052   -0.5038    0.0000 C    0  0  0  0  0  0  0  0  0  0  0  0
   -3.1016   -0.6744    0.0000 C    0  0  0  0  0  0  0  0  0  0  0  0
   -3.2521   -1.2762    0.0000 C    0  0  0  0  0  0  0  0  0  0  0  0
   -2.8061   -1.7074    0.0000 C    0  0  0  0  0  0  0  0  0  0  0  0
   -0.7633   -3.0807    0.0000 C    0  0  0  0  0  0  0  0  0  0  0  0
   -0.1787   -3.6118    0.0000 C    0  0  0  0  0  0  0  0  0  0  0  0
    0.5735   -3.3711    0.0000 C    0  0  0  0  0  0  0  0  0  0  0  0
    0.7412   -2.5993    0.0000 C    0  0  0  0  0  0  0  0  0  0  0  0
   -0.3464   -4.3837    0.0000 C    0  0  0  0  0  0  0  0  0  0  0  0
    0.2382   -4.9148    0.0000 C    0  0  0  0  0  0  0  0  0  0  0  0
    0.9905   -4.6741    0.0000 C    0  0  0  0  0  0  0  0  0  0  0  0
    1.1581   -3.9022    0.0000 C    0  0  0  0  0  0  0  0  0  0  0  0
   -1.9601    1.3140    0.0000 P    0  0  0  0  0  0  0  0  0  0  0  0
   -2.2629    0.5466    0.0000 N    0  0  0  0  0  0  0  0  0  0  0  0
   -2.0816    2.1300    0.0000 O    0  0  0  0  0  0  0  0  0  0  0  0
   -2.7275    1.6168    0.0000 O    0  0  0  0  0  0  0  0  0  0  0  0
   -3.0789    0.4251    0.0000 C    0  0  0  0  0  0  0  0  0  0  0  0
   -2.1343    2.8060    0.0000 C    0  0  0  0  0  0  0  0  0  0  0  0
   -3.3767    2.0346    0.0000 C    0  0  0  0  0  0  0  0  0  0  0  0
   -3.3245    2.8227    0.0000 C    0  0  0  0  0  0  0  0  0  0  0  0
   -2.6389    3.1668    0.0000 C    0  0  0  0  0  0  0  0  0  0  0  0
   -1.5695    3.0626    0.0000 C    0  0  0  0  0  0  0  0  0  0  0  0
   -1.5093    3.6800    0.0000 C    0  0  0  0  0  0  0  0  0  0  0  0
   -2.0139    4.0408    0.0000 C    0  0  0  0  0  0  0  0  0  0  0  0
   -2.5787    3.7842    0.0000 C    0  0  0  0  0  0  0  0  0  0  0  0
   -0.9445    3.9366    0.0000 C    0  0  0  0  0  0  0  0  0  0  0  0
   -0.8843    4.5540    0.0000 C    0  0  0  0  0  0  0  0  0  0  0  0
   -1.3889    4.9148    0.0000 C    0  0  0  0  0  0  0  0  0  0  0  0
   -1.9537    4.6582    0.0000 C    0  0  0  0  0  0  0  0  0  0  0  0
   -3.9810    3.2620    0.0000 C    0  0  0  0  0  0  0  0  0  0  0  0
   -4.6896    2.9131    0.0000 C    0  0  0  0  0  0  0  0  0  0  0  0
   -4.7417    2.1250    0.0000 C    0  0  0  0  0  0  0  0  0  0  0  0
   -4.0853    1.6858    0.0000 C    0  0  0  0  0  0  0  0  0  0  0  0
   -5.3460    3.3523    0.0000 C    0  0  0  0  0  0  0  0  0  0  0  0
   -6.0546    3.0034    0.0000 C    0  0  0  0  0  0  0  0  0  0  0  0
   -6.1068    2.2153    0.0000 C    0  0  0  0  0  0  0  0  0  0  0  0
   -5.4503    1.7761    0.0000 C    0  0  0  0  0  0  0  0  0  0  0  0
   -1.7497   -0.0994    0.0000 C    0  0  0  0  0  0  0  0  0  0  0  0
    1.0593    0.9709    0.0000 O    0  0  0  0  0  0  0  0  0  0  0  0
    1.7738    1.3834    0.0000 C    0  0  0  0  0  0  0  0  0  0  0  0
    1.7738    2.2084    0.0000 N    0  0  0  0  0  0  0  0  0  0  0  0
    0.7885    2.0843    0.0000 C    0  0  0  0  0  0  0  0  0  0  0  0
    2.4883    0.9709    0.0000 C    0  0  0  0  0  0  0  0  0  0  0  0
    0.3935    2.5783    0.0000 C    0  0  0  0  0  0  0  0  0  0  0  0
    0.0061    3.2578    0.0000 O    0  0  0  0  0  0  0  0  0  0  0  0
   -0.4034    2.3648    0.0000 O    0  0  0  0  0  0  0  0  0  0  0  0
    0.5895    3.8412    0.0000 C    0  0  0  0  0  0  0  0  0  0  0  0
    1.4505    1.6630    0.0000 C    0  0  0  0  0  0  0  0  0  0  0  0
    1.7844    0.7865    0.0000 C    0  0  0  0  0  0  0  0  0  0  0  0
    1.3719    0.0720    0.0000 C    0  0  0  0  0  0  0  0  0  0  0  0
    1.7844   -0.6425    0.0000 C    0  0  0  0  0  0  0  0  0  0  0  0
    2.6094   -0.6425    0.0000 C    0  0  0  0  0  0  0  0  0  0  0  0
    3.0219    0.0720    0.0000 C    0  0  0  0  0  0  0  0  0  0  0  0
    2.6094    0.7865    0.0000 C    0  0  0  0  0  0  0  0  0  0  0  0
    5.3923   -0.5035    0.0000 Sb   0  5  0  0  0  0  0  0  0  0  0  0
    5.3923   -1.3285    0.0000 F    0  0  0  0  0  0  0  0  0  0  0  0
    4.6778   -0.0910    0.0000 F    0  0  0  0  0  0  0  0  0  0  0  0
    6.1068   -0.0910    0.0000 F    0  0  0  0  0  0  0  0  0  0  0  0
    5.3923    0.3215    0.0000 F    0  0  0  0  0  0  0  0  0  0  0  0
    6.1068   -0.9160    0.0000 F    0  0  0  0  0  0  0  0  0  0  0  0
    4.6778   -0.9160    0.0000 F    0  0  0  0  0  0  0  0  0  0  0  0
  1  2  1  0  0
  2  3  1  0  0
  2  4  1  0  0
  2  5  1  0  0
  3  6  1  0  0
  3  7  1  0  0
  4  8  1  0  0
  5  9  1  0  0
  9 10  2  0  0
 10 11  1  0  0
 11  8  2  0  0
  8 12  1  0  0
 12 13  2  0  0
 13 14  1  0  0
 14 15  2  0  0
 15 11  1  0  0
 13 16  1  0  0
 16 17  2  0  0
 17 18  1  0  0
 18 19  2  0  0
 19 14  1  0  0
 10 20  1  0  0
 20 21  2  0  0
 21 22  1  0  0
 22 23  2  0  0
 23  9  1  0  0
 21 24  1  0  0
 24 25  2  0  0
 25 26  1  0  0
 26 27  2  0  0
 27 22  1  0  0
 28 29  1  0  0
 28 30  1  0  0
 28 31  1  0  0
 29 32  1  0  0
 30 33  1  0  0
 31 34  1  0  0
 34 35  2  0  0
 35 36  1  0  0
 36 33  2  0  0
 33 37  1  0  0
 37 38  2  0  0
 38 39  1  0  0
 39 40  2  0  0
 40 36  1  0  0
 38 41  1  0  0
 41 42  2  0  0
 42 43  1  0  0
 43 44  2  0  0
 44 39  1  0  0
 35 45  1  0  0
 45 46  2  0  0
 46 47  1  0  0
 47 48  2  0  0
 48 34  1  0  0
 46 49  1  0  0
 49 50  2  0  0
 50 51  1  0  0
 51 52  2  0  0
 52 47  1  0  0
 29 53  1  0  0
 28  1  1  0  0
 54 55  2  0  0
 54  1  1  0  0
 55 56  1  0  0
 56 57  1  0  0
 55 58  1  0  0
 57 59  1  0  0
 59 60  1  0  0
 59 61  2  0  0
 60 62  1  0  0
 57 63  2  0  0
 63 64  1  0  0
 64 65  2  0  0
 65 66  1  0  0
 66 67  2  0  0
 67 68  1  0  0
 68 69  2  0  0
 69 64  1  0  0
 70 71  1  0  0
 70 72  1  0  0
 70 73  1  0  0
 70 74  1  0  0
 70 75  1  0  0
 70 76  1  0  0
M  END
> <NMREDATA_VERSION>
1.1

> <NMREDATA_LEVEL>
0

> <NMREDATA_SOLVENT>
CD2Cl2

> <NMREDATA_TEMPERATURE>
183

> <NMREDATA_FORMULA>
C56H51F6N3O7P2RhSb

> <NMREDATA_SMILES>
F[Sb](F)(F)(F)(F)F.COC(=O)/C(=C\c1ccccc1)/N/C(=[O]/[Rh](P1(Oc2cc3ccccc3cc2-c2c(O1)cc1ccccc1c2)N(C)C)P1(Oc2cc3ccccc3cc2-c2c(O1)cc1ccccc1c2)N(C)C)/C

> <NMREDATA_ASSIGNMENT>
Rh1, 324.00, 1

> <NMREDATA_1D_103Rh>
324.00, L=Rh1

$$$$
