
  ACD/LABS12152511352D

 51 76  0  0  0  0  0  0  0  0  1 V2000
   20.4109  -16.4011    0.0000 B    0  0  0  0  0  0  0  0  0  0  0  0
   20.4109  -15.1211    0.0000 B    0  0  0  0  0  0  0  0  0  0  0  0
   18.3841  -14.2677    0.0000 B    0  0  0  0  0  0  0  0  0  0  0  0
   19.3442  -12.8809    0.0000 B    0  0  0  0  0  0  0  0  0  0  0  0
   21.8533  -12.6901    0.0000 B    0  0  0  0  0  0  0  0  0  0  0  0
   22.4911  -14.3210    0.0000 B    0  0  0  0  0  0  0  0  0  0  0  0
   21.8340  -10.6744    0.0000 B    0  0  0  0  0  0  0  0  0  0  0  0
   19.3144  -10.6938    0.0000 B    0  0  0  0  0  0  0  0  0  0  0  0
   18.2678  -12.2637    0.0000 C    0  0  0  0  0  0  0  0  0  0  0  0
   23.0162  -12.2831    0.0000 B    0  0  0  0  0  0  0  0  0  0  0  0
   20.3998  -13.3103    0.0000 C    0  0  0  0  0  0  0  0  0  0  0  0
   20.3804   -9.7635    0.0000 Rh   0  0  0  0  0  0  0  0  0  0  0  0
   21.5322   -9.0985    0.0000 H    0  0  0  0  0  0  0  0  0  0  0  0
   20.3696   -8.4788    0.0000 P    0  0  0  0  0  5  0  0  0  0  0  0
   19.2286   -9.0985    0.0000 P    0  0  0  0  0  5  0  0  0  0  0  0
   24.8762   -9.1858    0.0000 C    0  0  0  0  0  0  0  0  0  0  0  0
   20.6936   -6.0415    0.0000 C    0  0  0  0  0  0  0  0  0  0  0  0
   24.2699   -7.0585    0.0000 C    0  0  0  0  0  0  0  0  0  0  0  0
   16.2384  -10.6056    0.0000 C    0  0  0  0  0  0  0  0  0  0  0  0
   16.9028   -6.4506    0.0000 C    0  0  0  0  0  0  0  0  0  0  0  0
   14.8429   -8.2116    0.0000 C    0  0  0  0  0  0  0  0  0  0  0  0
   15.1261   -9.8764    0.0000 C    0  0  0  0  0  0  0  0  0  0  0  0
   13.9384  -10.4750    0.0000 C    0  0  0  0  0  0  0  0  0  0  0  0
   13.8630  -11.8028    0.0000 C    0  0  0  0  0  0  0  0  0  0  0  0
   14.9752  -12.5321    0.0000 C    0  0  0  0  0  0  0  0  0  0  0  0
   16.1629  -11.9335    0.0000 C    0  0  0  0  0  0  0  0  0  0  0  0
   14.4194   -6.9509    0.0000 C    0  0  0  0  0  0  0  0  0  0  0  0
   13.1158   -6.6872    0.0000 C    0  0  0  0  0  0  0  0  0  0  0  0
   12.2357   -7.6844    0.0000 C    0  0  0  0  0  0  0  0  0  0  0  0
   12.6592   -8.9451    0.0000 C    0  0  0  0  0  0  0  0  0  0  0  0
   13.9628   -9.2088    0.0000 C    0  0  0  0  0  0  0  0  0  0  0  0
   17.3294   -5.1909    0.0000 C    0  0  0  0  0  0  0  0  0  0  0  0
   16.4517   -4.1916    0.0000 C    0  0  0  0  0  0  0  0  0  0  0  0
   15.1475   -4.4521    0.0000 C    0  0  0  0  0  0  0  0  0  0  0  0
   14.7209   -5.7118    0.0000 C    0  0  0  0  0  0  0  0  0  0  0  0
   15.5986   -6.7111    0.0000 C    0  0  0  0  0  0  0  0  0  0  0  0
   21.9230   -5.5340    0.0000 C    0  0  0  0  0  0  0  0  0  0  0  0
   22.0982   -4.2156    0.0000 C    0  0  0  0  0  0  0  0  0  0  0  0
   21.0440   -3.4047    0.0000 C    0  0  0  0  0  0  0  0  0  0  0  0
   19.8147   -3.9121    0.0000 C    0  0  0  0  0  0  0  0  0  0  0  0
   19.6394   -5.2305    0.0000 C    0  0  0  0  0  0  0  0  0  0  0  0
   25.2889   -7.9132    0.0000 C    0  0  0  0  0  0  0  0  0  0  0  0
   26.5386   -7.4581    0.0000 C    0  0  0  0  0  0  0  0  0  0  0  0
   26.7693   -6.1483    0.0000 C    0  0  0  0  0  0  0  0  0  0  0  0
   25.7503   -5.2936    0.0000 C    0  0  0  0  0  0  0  0  0  0  0  0
   24.5006   -5.7487    0.0000 C    0  0  0  0  0  0  0  0  0  0  0  0
   25.3547  -10.4267    0.0000 C    0  0  0  0  0  0  0  0  0  0  0  0
   26.6686  -10.6328    0.0000 C    0  0  0  0  0  0  0  0  0  0  0  0
   27.5041   -9.5980    0.0000 C    0  0  0  0  0  0  0  0  0  0  0  0
   27.0256   -8.3571    0.0000 C    0  0  0  0  0  0  0  0  0  0  0  0
   25.7117   -8.1509    0.0000 C    0  0  0  0  0  0  0  0  0  0  0  0
  1  2  1  0  0  0  0
  1  6  1  0  0  0  0
  1  3  1  0  0  0  0
  1  4  1  0  0  0  0
  1  5  1  0  0  0  0
  2  3  1  0  0  0  0
  3  4  1  0  0  0  0
  4  5  1  0  0  0  0
  6  2  1  0  0  0  0
 10 11  1  0  0  0  0
 11  9  1  0  0  0  0
  9  8  1  0  0  0  0
  8  7  1  0  0  0  0
  7 10  1  0  0  0  0
 11  2  1  0  0  0  0
 11  3  1  0  0  0  0
  9  3  1  0  0  0  0
  9  4  1  0  0  0  0
  8  4  1  0  0  0  0
  8  5  1  0  0  0  0
  7  5  1  0  0  0  0
  7  4  1  0  0  0  0
 10  6  1  0  0  0  0
 10  5  1  0  0  0  0
  5  2  1  0  0  0  0
 12  8  1  0  0  0  0
 12  7  1  0  0  0  0
 12 10  1  0  0  0  0
 12 11  1  0  0  0  0
 12  9  1  0  0  0  0
 12 13  1  0  0  0  0
 12 14  1  0  0  0  0
 12 15  1  0  0  0  0
 14 16  1  0  0  0  0
 14 17  1  0  0  0  0
 14 18  1  0  0  0  0
 15 19  1  0  0  0  0
 15 20  1  0  0  0  0
 15 21  1  0  0  0  0
 19 22  2  0  0  0  0
 22 23  1  0  0  0  0
 23 24  2  0  0  0  0
 24 25  1  0  0  0  0
 25 26  2  0  0  0  0
 26 19  1  0  0  0  0
 21 27  2  0  0  0  0
 27 28  1  0  0  0  0
 28 29  2  0  0  0  0
 29 30  1  0  0  0  0
 30 31  2  0  0  0  0
 31 21  1  0  0  0  0
 20 32  2  0  0  0  0
 32 33  1  0  0  0  0
 33 34  2  0  0  0  0
 34 35  1  0  0  0  0
 35 36  2  0  0  0  0
 36 20  1  0  0  0  0
 17 37  2  0  0  0  0
 37 38  1  0  0  0  0
 38 39  2  0  0  0  0
 39 40  1  0  0  0  0
 40 41  2  0  0  0  0
 41 17  1  0  0  0  0
 18 42  2  0  0  0  0
 42 43  1  0  0  0  0
 43 44  2  0  0  0  0
 44 45  1  0  0  0  0
 45 46  2  0  0  0  0
 46 18  1  0  0  0  0
 16 47  2  0  0  0  0
 47 48  1  0  0  0  0
 48 49  2  0  0  0  0
 49 50  1  0  0  0  0
 50 51  2  0  0  0  0
 51 16  1  0  0  0  0
  5  6  1  0  0  0  0
M  END
> <NMREDATA_VERSION>
1.1

> <NMREDATA_LEVEL>
0

> <NMREDATA_SOLVENT>
CDCl3

> <NMREDATA_TEMPERATURE>
298

> <NMREDATA_FORMULA>
C38H33B9P2Rh

> <NMREDATA_SMILES>
c1ccc(cc1)P([RhH]1234(P(c5ccccc5)(c5ccccc5)c5ccccc5)[C]567[C]891[B]1%103[B]3%114[B]425[B]25%12%10%11[B]%10%117[B]768[B]9132[B]%12%117[B]45%10)(c1ccccc1)c1ccccc1

> <NMREDATA_ASSIGNMENT>
Rh12, -973.00, 12

> <NMREDATA_1D_103Rh>
-973.00, L=Rh12

$$$$
