
  ACD/LABS12142511542D

 62 70  0  0  0  0  0  0  0  0  2 V2000
   15.6848   -8.7755    0.0000 Rh   0  0  0  0  0  0  0  0  0  0  0  0
   14.5330   -9.4405    0.0000 P    0  0  0  0  0  5  0  0  0  0  0  0
   14.5330   -8.1105    0.0000 P    0  0  0  0  0  5  0  0  0  0  0  0
   16.8366   -9.4405    0.0000 P    0  0  0  0  0  5  0  0  0  0  0  0
   16.8366   -8.1105    0.0000 P    0  0  0  0  0  5  0  0  0  0  0  0
   10.7647   -5.3397    0.0000 C    0  0  0  0  0  0  0  0  0  0  0  0
   10.7647   -6.6697    0.0000 C    0  0  0  0  0  0  0  0  0  0  0  0
   11.9165   -7.3347    0.0000 C    0  0  0  0  0  0  0  0  0  0  0  0
   13.0683   -6.6697    0.0000 C    0  0  0  0  0  0  0  0  0  0  0  0
   13.0683   -5.3397    0.0000 C    0  0  0  0  0  0  0  0  0  0  0  0
   11.9165   -4.6747    0.0000 C    0  5  0  0  0  0  0  0  0  0  0  0
   13.8126   -4.0651    0.0000 C    0  0  0  0  0  0  0  0  0  0  0  0
   13.8126   -5.3951    0.0000 C    0  0  0  0  0  0  0  0  0  0  0  0
   14.9644   -6.0601    0.0000 C    0  0  0  0  0  0  0  0  0  0  0  0
   16.1162   -5.3951    0.0000 C    0  0  0  0  0  0  0  0  0  0  0  0
   16.1162   -4.0651    0.0000 C    0  0  0  0  0  0  0  0  0  0  0  0
   14.9644   -3.4001    0.0000 C    0  0  0  0  0  0  0  0  0  0  0  0
   17.0822   -4.7301    0.0000 C    0  0  0  0  0  0  0  0  0  0  0  0
   17.0822   -6.0601    0.0000 C    0  0  0  0  0  0  0  0  0  0  0  0
   18.2340   -6.7251    0.0000 C    0  0  0  0  0  0  0  0  0  0  0  0
   19.3858   -6.0601    0.0000 C    0  0  0  0  0  0  0  0  0  0  0  0
   19.3858   -4.7301    0.0000 C    0  0  0  0  0  0  0  0  0  0  0  0
   18.2340   -4.0651    0.0000 C    0  0  0  0  0  0  0  0  0  0  0  0
   19.2988   -6.4480    0.0000 C    0  0  0  0  0  0  0  0  0  0  0  0
   19.2988   -7.7780    0.0000 C    0  0  0  0  0  0  0  0  0  0  0  0
   20.4506   -8.4430    0.0000 C    0  0  0  0  0  0  0  0  0  0  0  0
   21.6025   -7.7780    0.0000 C    0  0  0  0  0  0  0  0  0  0  0  0
   21.6025   -6.4480    0.0000 C    0  0  0  0  0  0  0  0  0  0  0  0
   20.4506   -5.7830    0.0000 C    0  0  0  0  0  0  0  0  0  0  0  0
   17.2484  -11.1030    0.0000 C    0  0  0  0  0  0  0  0  0  0  0  0
   17.2484  -12.4330    0.0000 C    0  0  0  0  0  0  0  0  0  0  0  0
   18.4002  -13.0980    0.0000 C    0  0  0  0  0  0  0  0  0  0  0  0
   19.5520  -12.4330    0.0000 C    0  0  0  0  0  0  0  0  0  0  0  0
   19.5520  -11.1030    0.0000 C    0  0  0  0  0  0  0  0  0  0  0  0
   18.4002  -10.4380    0.0000 C    0  0  0  0  0  0  0  0  0  0  0  0
   14.5330  -11.8789    0.0000 C    0  0  0  0  0  0  0  0  0  0  0  0
   14.5330  -13.2089    0.0000 C    0  0  0  0  0  0  0  0  0  0  0  0
   15.6848  -13.8739    0.0000 C    0  0  0  0  0  0  0  0  0  0  0  0
   16.8366  -13.2089    0.0000 C    0  0  0  0  0  0  0  0  0  0  0  0
   16.8366  -11.8789    0.0000 C    0  0  0  0  0  0  0  0  0  0  0  0
   15.6848  -11.2139    0.0000 C    0  0  0  0  0  0  0  0  0  0  0  0
   11.0971  -11.8789    0.0000 C    0  0  0  0  0  0  0  0  0  0  0  0
   11.0971  -13.2089    0.0000 C    0  0  0  0  0  0  0  0  0  0  0  0
   12.2490  -13.8739    0.0000 C    0  0  0  0  0  0  0  0  0  0  0  0
   13.4008  -13.2089    0.0000 C    0  0  0  0  0  0  0  0  0  0  0  0
   13.4008  -11.8789    0.0000 C    0  0  0  0  0  0  0  0  0  0  0  0
   12.2490  -11.2139    0.0000 C    0  0  0  0  0  0  0  0  0  0  0  0
    7.2734  -10.6597    0.0000 C    0  0  0  0  0  0  0  0  0  0  0  0
    7.2734  -11.9897    0.0000 C    0  0  0  0  0  0  0  0  0  0  0  0
    8.4252  -12.6547    0.0000 C    0  0  0  0  0  0  0  0  0  0  0  0
    9.5770  -11.9897    0.0000 C    0  0  0  0  0  0  0  0  0  0  0  0
    9.5770  -10.6597    0.0000 C    0  0  0  0  0  0  0  0  0  0  0  0
    8.4252   -9.9947    0.0000 C    0  0  0  0  0  0  0  0  0  0  0  0
   21.0602  -10.1055    0.0000 C    0  0  0  0  0  0  0  0  0  0  0  0
   18.8990   -9.1634    0.0000 C    0  0  0  0  0  0  0  0  0  0  0  0
   10.8081   -9.3851    0.0000 C    0  0  0  0  0  0  0  0  0  0  0  0
   12.5260   -7.9997    0.0000 C    0  0  0  0  0  0  0  0  0  0  0  0
   10.4756   -8.2214    0.0000 C    0  0  0  0  0  0  0  0  0  0  0  0
   22.2120   -9.4405    0.0000 C    0  0  0  0  0  0  0  0  0  0  0  0
   11.8610   -8.4984    0.0000 C    0  0  0  0  0  0  0  0  0  0  0  0
   21.7252   -8.8864    0.0000 C    0  0  0  0  0  0  0  0  0  0  0  0
   24.5649   -9.4542    0.0000 Na   0  3  0  0  0  0  0  0  0  0  0  0
  1  2  1  0  0  0  0
  1  3  1  0  0  0  0
  1  4  1  0  0  0  0
  1  5  1  0  0  0  0
  6  7  2  0  0  0  0
  7  8  1  0  0  0  0
  8  9  2  0  0  0  0
  9 10  1  0  0  0  0
 10 11  2  0  0  0  0
 11  6  1  0  0  0  0
 12 13  2  0  0  0  0
 13 14  1  0  0  0  0
 14 15  2  0  0  0  0
 15 16  1  0  0  0  0
 16 17  2  0  0  0  0
 17 12  1  0  0  0  0
 18 19  2  0  0  0  0
 19 20  1  0  0  0  0
 20 21  2  0  0  0  0
 21 22  1  0  0  0  0
 22 23  2  0  0  0  0
 23 18  1  0  0  0  0
 24 25  2  0  0  0  0
 25 26  1  0  0  0  0
 26 27  2  0  0  0  0
 27 28  1  0  0  0  0
 28 29  2  0  0  0  0
 29 24  1  0  0  0  0
 30 31  2  0  0  0  0
 31 32  1  0  0  0  0
 32 33  2  0  0  0  0
 33 34  1  0  0  0  0
 34 35  2  0  0  0  0
 35 30  1  0  0  0  0
 36 37  2  0  0  0  0
 37 38  1  0  0  0  0
 38 39  2  0  0  0  0
 39 40  1  0  0  0  0
 40 41  2  0  0  0  0
 41 36  1  0  0  0  0
 42 43  2  0  0  0  0
 43 44  1  0  0  0  0
 44 45  2  0  0  0  0
 45 46  1  0  0  0  0
 46 47  2  0  0  0  0
 47 42  1  0  0  0  0
 48 49  2  0  0  0  0
 49 50  1  0  0  0  0
 50 51  2  0  0  0  0
 51 52  1  0  0  0  0
 52 53  2  0  0  0  0
 53 48  1  0  0  0  0
 52  2  1  0  0  0  0
 47  2  1  0  0  0  0
 41  4  1  0  0  0  0
 35  4  1  0  0  0  0
 20  5  1  0  0  0  0
 25  5  1  0  0  0  0
 14  3  1  0  0  0  0
  9  3  1  0  0  0  0
  4 54  1  0  0  0  0
 55  5  1  0  0  0  0
  2 56  1  0  0  0  0
  3 57  1  0  0  0  0
 56 58  1  0  0  0  0
 54 59  1  0  0  0  0
 58 60  1  0  0  0  0
 60 57  1  0  0  0  0
 59 61  1  0  0  0  0
 61 55  1  0  0  0  0
M  END
> <NMREDATA_VERSION>
1.1

> <NMREDATA_LEVEL>
0

> <NMREDATA_SOLVENT>
THF-d8

> <NMREDATA_TEMPERATURE>
298

> <NMREDATA_FORMULA>
C56H61NaP4Rh

> <NMREDATA_SMILES>
C1CCP([Rh]2(P(C1)(c1ccccc1)c1ccccc1)P(CCCCP2(c1ccccc1)c1ccccc1)(c1ccccc1)c1ccccc1)(c1ccccc1)c1ccccc1.[NaH]

> <NMREDATA_ASSIGNMENT>
Rh1, -467.00, 1

> <NMREDATA_1D_103Rh>
-467.00, L=Rh1

$$$$
