
  ACD/LABS12142511582D

 58 66  0  0  0  0  0  0  0  0  2 V2000
   15.6963   -7.7458    0.0000 Rh   0  0  0  0  0  0  0  0  0  0  0  0
   14.5445   -8.4108    0.0000 P    0  0  0  0  0  5  0  0  0  0  0  0
   14.5445   -7.0808    0.0000 P    0  0  0  0  0  5  0  0  0  0  0  0
   16.8481   -8.4108    0.0000 P    0  0  0  0  0  5  0  0  0  0  0  0
   16.8481   -7.0808    0.0000 P    0  0  0  0  0  5  0  0  0  0  0  0
   14.2002   -5.7961    0.0000 C    0  0  0  0  0  0  0  0  0  0  0  0
   18.1328   -6.7366    0.0000 C    0  0  0  0  0  0  0  0  0  0  0  0
   18.4117   -9.4083    0.0000 C    0  0  0  0  0  0  0  0  0  0  0  0
   15.6963  -10.1842    0.0000 C    0  0  0  0  0  0  0  0  0  0  0  0
   12.2605  -10.1842    0.0000 C    0  0  0  0  0  0  0  0  0  0  0  0
    9.5885   -9.6300    0.0000 C    0  0  0  0  0  0  0  0  0  0  0  0
   18.1781   -8.4108    0.0000 C    0  0  0  0  0  0  0  0  0  0  0  0
   18.1328   -7.4250    0.0000 C    0  0  0  0  0  0  0  0  0  0  0  0
   13.2145   -8.4108    0.0000 C    0  0  0  0  0  0  0  0  0  0  0  0
   12.9809   -7.3579    0.0000 C    0  0  0  0  0  0  0  0  0  0  0  0
   16.8481   -5.7508    0.0000 C    0  0  0  0  0  0  0  0  0  0  0  0
    8.6676   -8.6704    0.0000 C    0  0  0  0  0  0  0  0  0  0  0  0
    7.3761   -8.9881    0.0000 C    0  0  0  0  0  0  0  0  0  0  0  0
    7.0055  -10.2654    0.0000 C    0  0  0  0  0  0  0  0  0  0  0  0
    7.9264  -11.2250    0.0000 C    0  0  0  0  0  0  0  0  0  0  0  0
    9.2179  -10.9073    0.0000 C    0  0  0  0  0  0  0  0  0  0  0  0
   11.0288   -9.6822    0.0000 C    0  0  0  0  0  0  0  0  0  0  0  0
    9.9783  -10.4978    0.0000 C    0  0  0  0  0  0  0  0  0  0  0  0
   10.1594  -11.8154    0.0000 C    0  0  0  0  0  0  0  0  0  0  0  0
   11.3910  -12.3174    0.0000 C    0  0  0  0  0  0  0  0  0  0  0  0
   12.4416  -11.5018    0.0000 C    0  0  0  0  0  0  0  0  0  0  0  0
   14.3681  -10.1144    0.0000 C    0  0  0  0  0  0  0  0  0  0  0  0
   13.6437  -11.2298    0.0000 C    0  0  0  0  0  0  0  0  0  0  0  0
   14.2474  -12.4149    0.0000 C    0  0  0  0  0  0  0  0  0  0  0  0
   15.5755  -12.4846    0.0000 C    0  0  0  0  0  0  0  0  0  0  0  0
   16.3000  -11.3692    0.0000 C    0  0  0  0  0  0  0  0  0  0  0  0
   18.3529  -10.7370    0.0000 C    0  0  0  0  0  0  0  0  0  0  0  0
   19.4741  -11.4523    0.0000 C    0  0  0  0  0  0  0  0  0  0  0  0
   20.6542  -10.8389    0.0000 C    0  0  0  0  0  0  0  0  0  0  0  0
   20.7131   -9.5102    0.0000 C    0  0  0  0  0  0  0  0  0  0  0  0
   19.5918   -8.7949    0.0000 C    0  0  0  0  0  0  0  0  0  0  0  0
   19.0732   -7.6770    0.0000 C    0  0  0  0  0  0  0  0  0  0  0  0
   20.3579   -7.3328    0.0000 C    0  0  0  0  0  0  0  0  0  0  0  0
   20.7022   -6.0481    0.0000 C    0  0  0  0  0  0  0  0  0  0  0  0
   19.7617   -5.1077    0.0000 C    0  0  0  0  0  0  0  0  0  0  0  0
   18.4770   -5.4519    0.0000 C    0  0  0  0  0  0  0  0  0  0  0  0
   17.9999   -5.0858    0.0000 C    0  0  0  0  0  0  0  0  0  0  0  0
   17.9999   -3.7558    0.0000 C    0  0  0  0  0  0  0  0  0  0  0  0
   16.8481   -3.0908    0.0000 C    0  0  0  0  0  0  0  0  0  0  0  0
   15.6963   -3.7558    0.0000 C    0  0  0  0  0  0  0  0  0  0  0  0
   15.6963   -5.0858    0.0000 C    0  0  0  0  0  0  0  0  0  0  0  0
   15.1407   -4.8557    0.0000 C    0  0  0  0  0  0  0  0  0  0  0  0
   14.7965   -3.5710    0.0000 C    0  0  0  0  0  0  0  0  0  0  0  0
   13.5118   -3.2268    0.0000 C    0  0  0  0  0  0  0  0  0  0  0  0
   12.5713   -4.1672    0.0000 C    0  0  0  0  0  0  0  0  0  0  0  0
   12.9156   -5.3965    0.0000 C    0  0  0  0  0  0  0  0  0  0  0  0
    8.3932   -5.1966    0.0000 C    0  0  0  0  0  0  0  0  0  0  0  0
    8.3932   -6.5266    0.0000 C    0  0  0  0  0  0  0  0  0  0  0  0
    9.5450   -7.1916    0.0000 C    0  0  0  0  0  0  0  0  0  0  0  0
   10.6968   -6.5266    0.0000 C    0  0  0  0  0  0  0  0  0  0  0  0
   10.6968   -5.1966    0.0000 C    0  0  0  0  0  0  0  0  0  0  0  0
    9.5450   -4.5316    0.0000 C    0  5  0  0  0  0  0  0  0  0  0  0
   22.8824   -7.6114    0.0000 Na   0  3  0  0  0  0  0  0  0  0  0  0
  1  2  1  0  0  0  0
  1  3  1  0  0  0  0
  1  4  1  0  0  0  0
  1  5  1  0  0  0  0
 11  2  1  0  0  0  0
 10  2  1  0  0  0  0
  9  4  1  0  0  0  0
  8  4  1  0  0  0  0
  7  5  1  0  0  0  0
  6  3  1  0  0  0  0
  4 12  1  0  0  0  0
 13  5  1  0  0  0  0
  2 14  1  0  0  0  0
  3 15  1  0  0  0  0
 14 15  1  0  0  0  0
 12 13  1  0  0  0  0
  5 16  1  0  0  0  0
 17 18  1  0  0  0  0
 19 20  1  0  0  0  0
 21 11  1  0  0  0  0
 22 23  1  0  0  0  0
 24 25  1  0  0  0  0
 26 10  1  0  0  0  0
 27 28  1  0  0  0  0
 29 30  1  0  0  0  0
 31  9  1  0  0  0  0
 32 33  1  0  0  0  0
 34 35  1  0  0  0  0
 36  8  1  0  0  0  0
 37 38  1  0  0  0  0
 39 40  1  0  0  0  0
 41  7  1  0  0  0  0
 42 43  1  0  0  0  0
 44 45  1  0  0  0  0
 46 16  1  0  0  0  0
 47 48  1  0  0  0  0
 49 50  1  0  0  0  0
 51  6  1  0  0  0  0
 53 54  1  0  0  0  0
 55 56  1  0  0  0  0
 57 52  1  0  0  0  0
  3 55  1  0  0  0  0
 53 52  1  0  0  0  0
 56 57  1  0  0  0  0
 54 55  1  0  0  0  0
  6 47  1  0  0  0  0
 48 49  1  0  0  0  0
 51 50  1  0  0  0  0
 46 45  1  0  0  0  0
 43 44  1  0  0  0  0
 16 42  1  0  0  0  0
 41 40  1  0  0  0  0
 39 38  1  0  0  0  0
 37  7  1  0  0  0  0
 36 35  1  0  0  0  0
 33 34  1  0  0  0  0
  8 32  1  0  0  0  0
 31 30  1  0  0  0  0
 29 28  1  0  0  0  0
  9 27  1  0  0  0  0
 10 22  1  0  0  0  0
 26 25  1  0  0  0  0
 24 23  1  0  0  0  0
 21 20  1  0  0  0  0
 11 17  1  0  0  0  0
 18 19  1  0  0  0  0
M  END
> <NMREDATA_VERSION>
1.1

> <NMREDATA_LEVEL>
0

> <NMREDATA_SOLVENT>
THF-d8

> <NMREDATA_TEMPERATURE>
298

> <NMREDATA_FORMULA>
C52H101NaP4Rh

> <NMREDATA_SMILES>
C1CCC(CC1)P1(CCP([Rh]21P(CCP2(C1CCCCC1)C1CCCCC1)(C1CCCCC1)C1CCCCC1)(C1CCCCC1)C1CCCCC1)C1CCCCC1.[NaH]

> <NMREDATA_ASSIGNMENT>
Rh1, -632.00, 1

> <NMREDATA_1D_103Rh>
-632.00, L=Rh1

$$$$
