RhMan0925_0175.mol
  ChemDraw12172518112D

 33 43  0  0  0  0  0  0  0  0999 V2000
    0.0931    0.6541    0.0000 Rh   0  0  0  0  0  0  0  0  0  0  0  0
   -0.5649    2.3605    0.0000 C    0  0  0  0  0  0  0  0  0  0  0  0
   -0.5649    1.5355    0.0000 C    0  0  0  0  0  0  0  0  0  0  0  0
    0.2197    1.2806    0.0000 C    0  0  0  0  0  0  0  0  0  0  0  0
    0.7047    1.9480    0.0000 C    0  0  0  0  0  0  0  0  0  0  0  0
    0.2197    2.6154    0.0000 C    0  0  0  0  0  0  0  0  0  0  0  0
    0.9751    0.9488    0.0000 C    0  0  0  0  0  0  0  0  0  0  0  0
    1.5261    2.0249    0.0000 C    0  0  0  0  0  0  0  0  0  0  0  0
    0.4747    3.4001    0.0000 C    0  0  0  0  0  0  0  0  0  0  0  0
   -1.2323    2.8454    0.0000 C    0  0  0  0  0  0  0  0  0  0  0  0
   -1.3478    1.2755    0.0000 C    0  0  0  0  0  0  0  0  0  0  0  0
   -1.1667   -0.4078    0.0000 C    0  0  0  0  0  0  0  0  0  0  0  0
   -1.1667   -1.2328    0.0000 C    0  0  0  0  0  0  0  0  0  0  0  0
   -0.3821   -1.4878    0.0000 C    0  0  0  0  0  0  0  0  0  0  0  0
    0.1029   -0.8203    0.0000 C    0  0  0  0  0  0  0  0  0  0  0  0
   -0.3821   -0.1529    0.0000 C    0  0  0  0  0  0  0  0  0  0  0  0
   -1.8341   -1.7177    0.0000 C    0  0  0  0  0  0  0  0  0  0  0  0
   -2.5878   -1.3822    0.0000 C    0  0  0  0  0  0  0  0  0  0  0  0
   -1.7479   -2.5382    0.0000 O    0  0  0  0  0  0  0  0  0  0  0  0
   -2.6740   -0.5617    0.0000 C    0  0  0  0  0  0  0  0  0  0  0  0
   -3.4277   -0.2261    0.0000 C    0  0  0  0  0  0  0  0  0  0  0  0
   -4.0952   -0.7111    0.0000 C    0  0  0  0  0  0  0  0  0  0  0  0
   -4.0089   -1.5315    0.0000 C    0  0  0  0  0  0  0  0  0  0  0  0
   -3.2552   -1.8671    0.0000 C    0  0  0  0  0  0  0  0  0  0  0  0
   -0.1271   -2.2724    0.0000 C    0  0  0  0  0  0  0  0  0  0  0  0
   -0.6792   -2.8855    0.0000 O    0  0  0  0  0  0  0  0  0  0  0  0
    0.6798   -2.4439    0.0000 C    0  0  0  0  0  0  0  0  0  0  0  0
    0.9348   -3.2285    0.0000 C    0  0  0  0  0  0  0  0  0  0  0  0
    1.7418   -3.4001    0.0000 C    0  0  0  0  0  0  0  0  0  0  0  0
    2.2938   -2.7870    0.0000 C    0  0  0  0  0  0  0  0  0  0  0  0
    2.0389   -2.0023    0.0000 C    0  0  0  0  0  0  0  0  0  0  0  0
    1.2319   -1.8308    0.0000 C    0  0  0  0  0  0  0  0  0  0  0  0
    4.0952    0.5939    0.0000 Cl   0  5  0  0  0  0  0  0  0  0  0  0
  2  3  1  0  0
  3  4  1  0  0
  4  5  1  0  0
  5  6  1  0  0
  6  2  1  0  0
  4  1  1  0  0
  3  1  1  0  0
  2  1  1  0  0
  5  1  1  0  0
  4  7  1  0  0
  5  8  1  0  0
  6  9  1  0  0
  2 10  1  0  0
  3 11  1  0  0
  6  1  1  0  0
 12 13  1  0  0
 13 14  1  0  0
 14 15  1  0  0
 15 16  1  0  0
 16 12  1  0  0
 13 17  1  0  0
 17 18  1  0  0
 17 19  2  0  0
 18 20  2  0  0
 20 21  1  0  0
 21 22  2  0  0
 22 23  1  0  0
 23 24  2  0  0
 24 18  1  0  0
 14 25  1  0  0
 25 26  2  0  0
 25 27  1  0  0
 27 28  2  0  0
 28 29  1  0  0
 29 30  2  0  0
 30 31  1  0  0
 31 32  2  0  0
 32 27  1  0  0
 14  1  1  0  0
 15  1  1  0  0
 16  1  1  0  0
 12  1  1  0  0
 13  1  1  0  0
M  END
> <NMREDATA_VERSION>
1.1

> <NMREDATA_LEVEL>
0

> <NMREDATA_SOLVENT>
CD2Cl2

> <NMREDATA_TEMPERATURE>
300

> <NMREDATA_FORMULA>
C29H29ClO2Rh

> <NMREDATA_SMILES>
O=C(C12C3[Rh]4567892(C1(C(=O)c1ccccc1)C5C34)C1(C8(C7(C6(C91C)C)C)C)C)c1ccccc1.Cl

> <NMREDATA_ASSIGNMENT>
Rh1, 8340.00, 1

> <NMREDATA_1D_103Rh>
8340.00, L=Rh1

$$$$
