
  ACD/LABS12172514302D

 23 22  0  0  0  0  0  0  0  0 21 V2000
   19.4222   -5.2239    0.0000 Rh   0  5  0  0  0  0  0  0  0  0  0  0
   18.2703   -4.5589    0.0000 O    0  0  0  0  0  0  0  0  0  0  0  0
   17.6053   -3.4070    0.0000 H    0  0  0  0  0  0  0  0  0  0  0  0
   16.9857   -4.9031    0.0000 H    0  0  0  0  0  0  0  0  0  0  0  0
   20.5740   -5.8889    0.0000 O    0  0  0  0  0  0  0  0  0  0  0  0
   21.9040   -5.8889    0.0000 H    0  0  0  0  0  0  0  0  0  0  0  0
   21.8587   -6.2331    0.0000 H    0  0  0  0  0  0  0  0  0  0  0  0
   19.4222   -6.5539    0.0000 O    0  0  0  0  0  0  0  0  0  0  0  0
   18.2703   -5.8889    0.0000 O    0  0  0  0  0  0  0  0  0  0  0  0
   19.4222   -3.8939    0.0000 O    0  0  0  0  0  0  0  0  0  0  0  0
   20.9529   -4.2834    0.0000 O    0  0  0  0  0  0  0  0  0  0  0  0
   20.5740   -7.2189    0.0000 N    0  3  0  0  0  0  0  0  0  0  0  0
   21.7258   -6.5539    0.0000 O    0  0  0  0  0  0  0  0  0  0  0  0
   20.5740   -8.5489    0.0000 O    0  5  0  0  0  0  0  0  0  0  0  0
   18.2704   -7.2189    0.0000 N    0  3  0  0  0  0  0  0  0  0  0  0
   19.4222   -7.8839    0.0000 O    0  0  0  0  0  0  0  0  0  0  0  0
   17.1185   -7.8839    0.0000 O    0  5  0  0  0  0  0  0  0  0  0  0
   18.2703   -3.2289    0.0000 N    0  3  0  0  0  0  0  0  0  0  0  0
   17.1185   -3.8939    0.0000 O    0  0  0  0  0  0  0  0  0  0  0  0
   18.2703   -1.8989    0.0000 O    0  5  0  0  0  0  0  0  0  0  0  0
   20.9039   -2.4894    0.0000 N    0  3  0  0  0  0  0  0  0  0  0  0
   19.3258   -1.6348    0.0000 O    0  0  0  0  0  0  0  0  0  0  0  0
   22.4331   -1.5499    0.0000 O    0  5  0  0  0  0  0  0  0  0  0  0
  1  2  1  0  0  0  0
  2  3  1  0  0  0  0
  2  4  1  0  0  0  0
  1  5  1  0  0  0  0
  5  6  1  0  0  0  0
  5  7  1  0  0  0  0
  1  8  1  0  0  0  0
  1  9  1  0  0  0  0
  1 10  1  0  0  0  0
  1 11  1  0  0  0  0
 12 13  2  0  0  0  0
 12 14  1  0  0  0  0
  8 12  1  0  0  0  0
 15 16  2  0  0  0  0
 15 17  1  0  0  0  0
  9 15  1  0  0  0  0
 18 19  2  0  0  0  0
 18 20  1  0  0  0  0
 10 18  1  0  0  0  0
 21 22  2  0  0  0  0
 21 23  1  0  0  0  0
 11 21  1  0  0  0  0
M  END
> <NMREDATA_VERSION>
1.1

> <NMREDATA_LEVEL>
0

> <NMREDATA_SOLVENT>
H2O/HNO3

> <NMREDATA_TEMPERATURE>
303

> <NMREDATA_FORMULA>
H12N4O14Rh

> <NMREDATA_SMILES>
ON(=O)O[Rh](ON(=O)O)(ON(=O)O)(ON(=O)O)([OH2])[OH2]

> <NMREDATA_ASSIGNMENT>
Rh1, 10036.00, 1

> <NMREDATA_1D_103Rh>
10036.00, L=Rh1

$$$$
