RhMan0925_0095.mol
  ChemDraw01122615532D

 42 55  0  0  0  0  0  0  0  0999 V2000
    1.8723    1.2335    0.0000 Rh   0  0  0  0  0  0  0  0  0  0  0  0
    0.9768    1.6460    0.0000 O    0  0  0  0  0  0  0  0  0  0  0  0
    1.1078    0.6502    0.0000 O    0  0  0  0  0  0  0  0  0  0  0  0
    0.2828    0.6502    0.0000 C    0  0  0  0  0  0  0  0  0  0  0  0
    0.1517    1.6460    0.0000 C    0  0  0  0  0  0  0  0  0  0  0  0
   -0.4316    1.0627    0.0000 C    0  0  0  0  0  0  0  0  0  0  0  0
    2.4823    1.8155    0.0000 C    0  0  0  0  0  0  0  0  0  0  0  0
    3.0656    2.3989    0.0000 O    0  0  0  0  0  0  0  0  0  0  0  0
    2.0716   -0.2049    0.0000 P    0  0  0  0  0  4  0  0  0  0  0  0
    1.2460   -1.3920    0.0000 C    0  0  0  0  0  0  0  0  0  0  0  0
    2.7771   -0.6306    0.0000 C    0  0  0  0  0  0  0  0  0  0  0  0
    2.8806   -2.0614    0.0000 C    0  0  0  0  0  0  0  0  0  0  0  0
    2.6787   -2.8614    0.0000 C    0  0  0  0  0  0  0  0  0  0  0  0
    3.2704   -3.4361    0.0000 C    0  0  0  0  0  0  0  0  0  0  0  0
    4.0641   -3.2111    0.0000 C    0  0  0  0  0  0  0  0  0  0  0  0
    4.2660   -2.4111    0.0000 C    0  0  0  0  0  0  0  0  0  0  0  0
    3.6743   -1.8363    0.0000 C    0  0  0  0  0  0  0  0  0  0  0  0
    3.2903   -1.2765    0.0000 C    0  0  0  0  0  0  0  0  0  0  0  0
    4.1064   -1.1550    0.0000 C    0  0  0  0  0  0  0  0  0  0  0  0
    4.4091   -0.3876    0.0000 C    0  0  0  0  0  0  0  0  0  0  0  0
    3.8959    0.2583    0.0000 C    0  0  0  0  0  0  0  0  0  0  0  0
    3.0799    0.1368    0.0000 C    0  0  0  0  0  0  0  0  0  0  0  0
    0.4718   -1.5380    0.0000 C    0  0  0  0  0  0  0  0  0  0  0  0
    0.2588   -2.3350    0.0000 C    0  0  0  0  0  0  0  0  0  0  0  0
    0.8425   -2.9181    0.0000 C    0  0  0  0  0  0  0  0  0  0  0  0
    1.6392   -2.7041    0.0000 C    0  0  0  0  0  0  0  0  0  0  0  0
    1.8297   -1.9750    0.0000 C    0  0  0  0  0  0  0  0  0  0  0  0
   -0.0390    2.6263    0.0000 C    0  0  0  0  0  0  0  0  0  0  0  0
    0.5835    3.1677    0.0000 F    0  0  0  0  0  0  0  0  0  0  0  0
   -0.8191    2.8948    0.0000 F    0  0  0  0  0  0  0  0  0  0  0  0
   -0.1966    3.4361    0.0000 F    0  0  0  0  0  0  0  0  0  0  0  0
   -2.4562   -0.7742    0.0000 Fe   0  0  0  0  0  0  0  0  0  0  0  0
   -4.4091   -1.1799    0.0000 C    0  0  0  0  0  0  0  0  0  0  0  0
   -4.4091   -2.0048    0.0000 C    0  0  0  0  0  0  0  0  0  0  0  0
   -3.6246   -2.2598    0.0000 C    0  0  0  0  0  0  0  0  0  0  0  0
   -3.1396   -1.5924    0.0000 C    0  0  0  0  0  0  0  0  0  0  0  0
   -3.6246   -0.9250    0.0000 C    0  0  0  0  0  0  0  0  0  0  0  0
   -1.5810   -0.4260    0.0000 C    0  0  0  0  0  0  0  0  0  0  0  0
   -1.5810   -1.2510    0.0000 C    0  0  0  0  0  0  0  0  0  0  0  0
   -0.7964   -1.5059    0.0000 C    0  0  0  0  0  0  0  0  0  0  0  0
   -0.3116   -0.8385    0.0000 C    0  0  0  0  0  0  0  0  0  0  0  0
   -0.7964   -0.1710    0.0000 C    0  0  0  0  0  0  0  0  0  0  0  0
  1  2  1  0  0
  1  3  1  0  0
  3  4  2  0  0
  2  5  1  0  0
  4  6  1  0  0
  5  6  2  0  0
  1  7  1  0  0
  7  8  3  0  0
  1  9  1  0  0
  9 10  1  0  0
  9 11  1  0  0
  9 12  1  0  0
 12 13  2  0  0
 13 14  1  0  0
 14 15  2  0  0
 15 16  1  0  0
 16 17  2  0  0
 17 12  1  0  0
 11 18  2  0  0
 18 19  1  0  0
 19 20  2  0  0
 20 21  1  0  0
 21 22  2  0  0
 22 11  1  0  0
 10 23  2  0  0
 23 24  1  0  0
 24 25  2  0  0
 25 26  1  0  0
 26 27  2  0  0
 27 10  1  0  0
  5 28  1  0  0
 28 29  1  0  0
 28 30  1  0  0
 28 31  1  0  0
 33 34  1  0  0
 34 35  1  0  0
 35 36  1  0  0
 36 37  1  0  0
 37 33  1  0  0
 38 39  1  0  0
 39 40  1  0  0
 40 41  1  0  0
 41 42  1  0  0
 42 38  1  0  0
 38 32  1  0  0
 39 32  1  0  0
 36 32  1  0  0
 37 32  1  0  0
 40 32  1  0  0
 41 32  1  0  0
 42 32  1  0  0
 35 32  1  0  0
 34 32  1  0  0
 33 32  1  0  0
  4 42  1  0  0
M  END
> <NMREDATA_VERSION>
1.1

> <NMREDATA_LEVEL>
0

> <NMREDATA_SOLVENT>
CDCl3

> <NMREDATA_TEMPERATURE>
298

> <NMREDATA_FORMULA>
C33H26F3FeO3PRh

> <NMREDATA_SMILES>
[O]#C[Rh]1(OC(=CC(=[O]1)C12C3[Fe]4567892(C1C5C34)C1C8C7C6C91)C(F)(F)F)P(c1ccccc1)(c1ccccc1)c1ccccc1

> <NMREDATA_ASSIGNMENT>
Rh1, 315.00, 1

> <NMREDATA_1D_103Rh>
315.00, L=Rh1

$$$$
