RhMan0925_0096.mol
  ChemDraw01122615542D

 42 55  0  0  0  0  0  0  0  0999 V2000
    1.6134    0.0592    0.0000 Rh   0  0  0  0  0  0  0  0  0  0  0  0
    0.7178    0.4717    0.0000 O    0  0  0  0  0  0  0  0  0  0  0  0
    0.8490   -0.5242    0.0000 O    0  0  0  0  0  0  0  0  0  0  0  0
    0.0240   -0.5242    0.0000 C    0  0  0  0  0  0  0  0  0  0  0  0
   -0.1072    0.4717    0.0000 C    0  0  0  0  0  0  0  0  0  0  0  0
   -0.6905   -0.1117    0.0000 C    0  0  0  0  0  0  0  0  0  0  0  0
    2.0616   -0.7598    0.0000 C    0  0  0  0  0  0  0  0  0  0  0  0
    2.0742   -1.5020    0.0000 O    0  0  0  0  0  0  0  0  0  0  0  0
    2.8587    1.1459    0.0000 P    0  0  0  0  0  4  0  0  0  0  0  0
    2.1570    1.9912    0.0000 C    0  0  0  0  0  0  0  0  0  0  0  0
    3.3398    1.7873    0.0000 C    0  0  0  0  0  0  0  0  0  0  0  0
    3.1424    0.6358    0.0000 C    0  0  0  0  0  0  0  0  0  0  0  0
    2.9405   -0.1642    0.0000 C    0  0  0  0  0  0  0  0  0  0  0  0
    3.5323   -0.7389    0.0000 C    0  0  0  0  0  0  0  0  0  0  0  0
    4.3260   -0.5139    0.0000 C    0  0  0  0  0  0  0  0  0  0  0  0
    4.5279    0.2860    0.0000 C    0  0  0  0  0  0  0  0  0  0  0  0
    3.9361    0.8609    0.0000 C    0  0  0  0  0  0  0  0  0  0  0  0
    4.1565    1.6711    0.0000 C    0  0  0  0  0  0  0  0  0  0  0  0
    4.6655    2.3204    0.0000 C    0  0  0  0  0  0  0  0  0  0  0  0
    4.3576    3.0858    0.0000 C    0  0  0  0  0  0  0  0  0  0  0  0
    3.5409    3.2020    0.0000 C    0  0  0  0  0  0  0  0  0  0  0  0
    3.0319    2.5527    0.0000 C    0  0  0  0  0  0  0  0  0  0  0  0
    2.4063    2.7776    0.0000 C    0  0  0  0  0  0  0  0  0  0  0  0
    1.8500    3.3868    0.0000 C    0  0  0  0  0  0  0  0  0  0  0  0
    1.0442    3.2095    0.0000 C    0  0  0  0  0  0  0  0  0  0  0  0
    0.7949    2.4231    0.0000 C    0  0  0  0  0  0  0  0  0  0  0  0
    1.3513    1.8140    0.0000 C    0  0  0  0  0  0  0  0  0  0  0  0
   -0.2979    1.4520    0.0000 C    0  0  0  0  0  0  0  0  0  0  0  0
    0.3246    1.9934    0.0000 F    0  0  0  0  0  0  0  0  0  0  0  0
   -1.0780    1.7205    0.0000 F    0  0  0  0  0  0  0  0  0  0  0  0
   -0.4555    2.2618    0.0000 F    0  0  0  0  0  0  0  0  0  0  0  0
   -2.7125   -1.9011    0.0000 Fe   0  0  0  0  0  0  0  0  0  0  0  0
   -4.6655   -2.3068    0.0000 C    0  0  0  0  0  0  0  0  0  0  0  0
   -4.6655   -3.1318    0.0000 C    0  0  0  0  0  0  0  0  0  0  0  0
   -3.8809   -3.3868    0.0000 C    0  0  0  0  0  0  0  0  0  0  0  0
   -3.3959   -2.7193    0.0000 C    0  0  0  0  0  0  0  0  0  0  0  0
   -3.8809   -2.0519    0.0000 C    0  0  0  0  0  0  0  0  0  0  0  0
   -1.8374   -1.5530    0.0000 C    0  0  0  0  0  0  0  0  0  0  0  0
   -1.8374   -2.3779    0.0000 C    0  0  0  0  0  0  0  0  0  0  0  0
   -1.0527   -2.6328    0.0000 C    0  0  0  0  0  0  0  0  0  0  0  0
   -0.5679   -1.9654    0.0000 C    0  0  0  0  0  0  0  0  0  0  0  0
   -1.0527   -1.2980    0.0000 C    0  0  0  0  0  0  0  0  0  0  0  0
  1  2  1  0  0
  1  3  1  0  0
  3  4  2  0  0
  2  5  1  0  0
  4  6  1  0  0
  5  6  2  0  0
  1  7  1  0  0
  7  8  3  0  0
  1  9  1  0  0
  9 10  1  0  0
  9 11  1  0  0
  9 12  1  0  0
 12 13  2  0  0
 13 14  1  0  0
 14 15  2  0  0
 15 16  1  0  0
 16 17  2  0  0
 17 12  1  0  0
 11 18  2  0  0
 18 19  1  0  0
 19 20  2  0  0
 20 21  1  0  0
 21 22  2  0  0
 22 11  1  0  0
 10 23  2  0  0
 23 24  1  0  0
 24 25  2  0  0
 25 26  1  0  0
 26 27  2  0  0
 27 10  1  0  0
  5 28  1  0  0
 28 29  1  0  0
 28 30  1  0  0
 28 31  1  0  0
 33 34  1  0  0
 34 35  1  0  0
 35 36  1  0  0
 36 37  1  0  0
 37 33  1  0  0
 38 39  1  0  0
 39 40  1  0  0
 40 41  1  0  0
 41 42  1  0  0
 42 38  1  0  0
 38 32  1  0  0
 39 32  1  0  0
 36 32  1  0  0
 37 32  1  0  0
 40 32  1  0  0
 41 32  1  0  0
 42 32  1  0  0
 35 32  1  0  0
 34 32  1  0  0
 33 32  1  0  0
 42  4  1  0  0
M  END
> <NMREDATA_VERSION>
1.1

> <NMREDATA_LEVEL>
0

> <NMREDATA_SOLVENT>
CDCl3

> <NMREDATA_TEMPERATURE>
298

> <NMREDATA_FORMULA>
C33H26F3FeO3PRh

> <NMREDATA_SMILES>
[O]#C[Rh]1(OC(=CC(=[O]1)C12C3[Fe]4567892(C1C5C34)C1C8C7C6C91)C(F)(F)F)P(c1ccccc1)(c1ccccc1)c1ccccc1

> <NMREDATA_ASSIGNMENT>
Rh1, 315.00, 1

> <NMREDATA_1D_103Rh>
315.00, L=Rh1

$$$$
