RhMan0925_0162.mol
  ChemDraw12172516492D

 28 37  0  0  0  0  0  0  0  0999 V2000
    0.0769   -0.4376    0.0000 Rh   0  3  0  0  0  0  0  0  0  0  0  0
   -0.5798    0.6833    0.0000 P    0  0  0  0  0  0  0  0  0  0  0  0
    0.5869    0.6833    0.0000 P    0  0  0  0  0  0  0  0  0  0  0  0
   -0.5798    1.5083    0.0000 C    0  0  0  0  0  0  0  0  0  0  0  0
    0.5869    1.5083    0.0000 C    0  0  0  0  0  0  0  0  0  0  0  0
   -0.6132   -1.4666    0.0000 C    0  0  0  0  0  0  0  0  0  0  0  0
   -0.6132   -2.2916    0.0000 C    0  0  0  0  0  0  0  0  0  0  0  0
    0.1013   -2.7041    0.0000 C    0  0  0  0  0  0  0  0  0  0  0  0
    0.8158   -2.2916    0.0000 C    0  0  0  0  0  0  0  0  0  0  0  0
    0.8158   -1.4666    0.0000 C    0  0  0  0  0  0  0  0  0  0  0  0
    0.1013   -1.0541    0.0000 C    0  0  0  0  0  0  0  0  0  0  0  0
    1.1703    2.5187    0.0000 C    0  0  0  0  0  0  0  0  0  0  0  0
    0.5869    3.5291    0.0000 C    0  0  0  0  0  0  0  0  0  0  0  0
   -0.5798    3.5291    0.0000 C    0  0  0  0  0  0  0  0  0  0  0  0
   -1.1631    2.5187    0.0000 C    0  0  0  0  0  0  0  0  0  0  0  0
   -1.1878    1.2409    0.0000 C    0  0  0  0  0  0  0  0  0  0  0  0
   -1.9060    0.8350    0.0000 C    0  0  0  0  0  0  0  0  0  0  0  0
   -1.7419    0.0265    0.0000 C    0  0  0  0  0  0  0  0  0  0  0  0
   -0.9222   -0.2383    0.0000 C    0  0  0  0  0  0  0  0  0  0  0  0
    0.9593   -0.0529    0.0000 C    0  0  0  0  0  0  0  0  0  0  0  0
    1.7745    0.0737    0.0000 C    0  0  0  0  0  0  0  0  0  0  0  0
    1.9060    0.8882    0.0000 C    0  0  0  0  0  0  0  0  0  0  0  0
    1.1720    1.2649    0.0000 C    0  0  0  0  0  0  0  0  0  0  0  0
    1.7554    1.8483    0.0000 C    0  0  0  0  0  0  0  0  0  0  0  0
    1.5427   -0.6363    0.0000 C    0  0  0  0  0  0  0  0  0  0  0  0
   -1.7711    1.8243    0.0000 C    0  0  0  0  0  0  0  0  0  0  0  0
   -1.5056   -0.8217    0.0000 C    0  0  0  0  0  0  0  0  0  0  0  0
    0.1013   -3.5291    0.0000 C    0  0  0  0  0  0  0  0  0  0  0  0
  1  2  1  0  0
  1  3  1  0  0
  2  4  1  0  0
  3  5  1  0  0
  5  4  2  0  0
  6  7  1  0  0
  7  8  1  0  0
  8  9  1  0  0
  9 10  1  0  0
 10 11  1  0  0
 11  6  1  0  0
 11  1  1  0  0
  6  1  1  0  0
  7  1  1  0  0
  8  1  1  0  0
  9  1  1  0  0
 10  1  1  0  0
  5 12  1  0  0
 12 13  2  0  0
 13 14  1  0  0
 14 15  2  0  0
 15  4  1  0  0
  2 16  1  0  0
 16 17  1  0  0
 17 18  1  0  0
 18 19  1  0  0
 19  2  1  0  0
  3 20  1  0  0
 20 21  1  0  0
 21 22  1  0  0
 22 23  1  0  0
 23  3  1  0  0
 23 24  1  0  0
 20 25  1  0  0
 16 26  1  0  0
 19 27  1  0  0
  8 28  1  0  0
M  END
> <NMREDATA_VERSION>
1.1

> <NMREDATA_LEVEL>
0

> <NMREDATA_SOLVENT>
CD2Cl2

> <NMREDATA_TEMPERATURE>
298

> <NMREDATA_FORMULA>
C25H38P2Rh

> <NMREDATA_SMILES>
CC1CCC(P21c1ccccc1P1([Rh]345672C2C3C6C7(C5C42)C)C(C)CCC1C)C

> <NMREDATA_ASSIGNMENT>
Rh1, -1139.00, 1

> <NMREDATA_1D_103Rh>
-1139.00, L=Rh1

$$$$
