RhMan0925_0166.mol
  ChemDraw12172517172D

 41100  0  0  0  0  0  0  0  0999 V2000
    0.2923   -1.9753    0.0000 Rh   0  0  0  0  0  0  0  0  0  0  0  0
    2.6756    1.1606    0.0000 Sn   0  0  0  0  0  0  0  0  0  0  0  0
    1.9593    3.1536    0.0000 B    0  0  0  0  0  0  0  0  0  0  0  0
    3.8751    2.2508    0.0000 B    0  0  0  0  0  0  0  0  0  0  0  0
    5.6147    3.4585    0.0000 B    0  0  0  0  0  0  0  0  0  0  0  0
    4.4070    5.1982    0.0000 B    0  0  0  0  0  0  0  0  0  0  0  0
    2.2966    5.0221    0.0000 B    0  0  0  0  0  0  0  0  0  0  0  0
    2.6226    4.4842    0.0000 B    0  0  0  0  0  0  0  0  0  0  0  0
    4.4484    3.4113    0.0000 B    0  0  0  0  0  0  0  0  0  0  0  0
    6.0331    4.8162    0.0000 B    0  0  0  0  0  0  0  0  0  0  0  0
    5.1866    6.7575    0.0000 B    0  0  0  0  0  0  0  0  0  0  0  0
    3.0788    6.5523    0.0000 B    0  0  0  0  0  0  0  0  0  0  0  0
    5.8570    6.9267    0.0000 B    0  0  0  0  0  0  0  0  0  0  0  0
    2.6287   -2.8772    0.0000 Sn   0  0  0  0  0  0  0  0  0  0  0  0
    4.7096   -2.4836    0.0000 B    0  0  0  0  0  0  0  0  0  0  0  0
    3.5165   -4.2333    0.0000 B    0  0  0  0  0  0  0  0  0  0  0  0
    4.4353   -6.1414    0.0000 B    0  0  0  0  0  0  0  0  0  0  0  0
    6.3434   -5.2226    0.0000 B    0  0  0  0  0  0  0  0  0  0  0  0
    6.5018   -3.1108    0.0000 B    0  0  0  0  0  0  0  0  0  0  0  0
    5.9193   -3.3481    0.0000 B    0  0  0  0  0  0  0  0  0  0  0  0
    4.5723   -4.9822    0.0000 B    0  0  0  0  0  0  0  0  0  0  0  0
    5.7102   -6.7683    0.0000 B    0  0  0  0  0  0  0  0  0  0  0  0
    7.7605   -6.2380    0.0000 B    0  0  0  0  0  0  0  0  0  0  0  0
    7.8897   -4.1241    0.0000 B    0  0  0  0  0  0  0  0  0  0  0  0
    7.8221   -6.9267    0.0000 B    0  0  0  0  0  0  0  0  0  0  0  0
   -1.3079   -1.9761    0.0000 Sn   0  0  0  0  0  0  0  0  0  0  0  0
   -2.7591   -3.5185    0.0000 B    0  0  0  0  0  0  0  0  0  0  0  0
   -2.8236   -1.4017    0.0000 B    0  0  0  0  0  0  0  0  0  0  0  0
   -4.6890   -0.3991    0.0000 B    0  0  0  0  0  0  0  0  0  0  0  0
   -5.6916   -2.2646    0.0000 B    0  0  0  0  0  0  0  0  0  0  0  0
   -4.5773   -4.0655    0.0000 B    0  0  0  0  0  0  0  0  0  0  0  0
   -4.2458   -3.5310    0.0000 B    0  0  0  0  0  0  0  0  0  0  0  0
   -4.1179   -1.4171    0.0000 B    0  0  0  0  0  0  0  0  0  0  0  0
   -6.0888   -0.6422    0.0000 B    0  0  0  0  0  0  0  0  0  0  0  0
   -7.4348   -2.2772    0.0000 B    0  0  0  0  0  0  0  0  0  0  0  0
   -6.2958   -4.0626    0.0000 B    0  0  0  0  0  0  0  0  0  0  0  0
   -7.8897   -1.7564    0.0000 B    0  0  0  0  0  0  0  0  0  0  0  0
   -0.0733   -2.8003    0.0000 C    0  0  0  0  0  0  0  0  0  0  0  0
   -0.0781   -1.1503    0.0000 C    0  0  0  0  0  0  0  0  0  0  0  0
   -0.0829   -0.3253    0.0000 O    0  0  0  0  0  0  0  0  0  0  0  0
   -0.0733   -3.6253    0.0000 O    0  0  0  0  0  0  0  0  0  0  0  0
  1  2  1  0  0
  2  3  1  0  0
  3  4  1  0  0
  4  5  1  0  0
  5  6  1  0  0
  6  7  1  0  0
  3  7  1  0  0
  2  4  1  0  0
  8  9  1  0  0
  9 10  1  0  0
 10 11  1  0  0
 11 12  1  0  0
 12  8  1  0  0
  5  2  1  0  0
  6  2  1  0  0
  7  2  1  0  0
  9  4  1  0  0
  9  3  1  0  0
  8  4  1  0  0
  8  3  1  0  0
  8  7  1  0  0
  7 12  1  0  0
 12  6  1  0  0
  6 11  1  0  0
 11  5  1  0  0
  5 10  1  0  0
 10  4  1  0  0
 10 13  1  0  0
 13 11  1  0  0
 13 12  1  0  0
 13  8  1  0  0
 13  9  1  0  0
 14 15  1  0  0
 15 16  1  0  0
 16 17  1  0  0
 17 18  1  0  0
 18 19  1  0  0
 15 19  1  0  0
 14 16  1  0  0
 20 21  1  0  0
 21 22  1  0  0
 22 23  1  0  0
 23 24  1  0  0
 24 20  1  0  0
 17 14  1  0  0
 18 14  1  0  0
 19 14  1  0  0
 21 16  1  0  0
 21 15  1  0  0
 20 16  1  0  0
 20 15  1  0  0
 20 19  1  0  0
 19 24  1  0  0
 24 18  1  0  0
 18 23  1  0  0
 23 17  1  0  0
 17 22  1  0  0
 22 16  1  0  0
 22 25  1  0  0
 25 23  1  0  0
 25 24  1  0  0
 25 20  1  0  0
 25 21  1  0  0
 26 27  1  0  0
 27 28  1  0  0
 28 29  1  0  0
 29 30  1  0  0
 30 31  1  0  0
 27 31  1  0  0
 26 28  1  0  0
 32 33  1  0  0
 33 34  1  0  0
 34 35  1  0  0
 35 36  1  0  0
 36 32  1  0  0
 29 26  1  0  0
 30 26  1  0  0
 31 26  1  0  0
 33 28  1  0  0
 33 27  1  0  0
 32 28  1  0  0
 32 27  1  0  0
 32 31  1  0  0
 31 36  1  0  0
 36 30  1  0  0
 30 35  1  0  0
 35 29  1  0  0
 29 34  1  0  0
 34 28  1  0  0
 34 37  1  0  0
 37 35  1  0  0
 37 36  1  0  0
 37 32  1  0  0
 37 33  1  0  0
 14  1  1  0  0
  1 26  1  0  0
  1 38  1  0  0
  1 39  1  0  0
 39 40  3  0  0
 38 41  3  0  0
M  END
> <NMREDATA_VERSION>
1.1

> <NMREDATA_LEVEL>
0

> <NMREDATA_SOLVENT>
CD2Cl2

> <NMREDATA_TEMPERATURE>
298

> <NMREDATA_FORMULA>
C2B33O2RhSn3

> <NMREDATA_SMILES>
[O]#C[Rh]([Sn]1234[B]567[B]892[B]2%101[B]1%113[B]3%1245[B]457[B]768[B]69%10[B]8213[B]%11%124[B]5768)([Sn]1234[B]567[B]892[B]2%101[B]1%113[B]3%1245[B]457[B]768[B]69%10[B]8213[B]%11%124[B]5768)([Sn]1234[B]567[B]892[B]2%101[B]1%113[B]3%1245[B]457[B]768[B]69%10[B]8213[B]%11%124[B]5768)C#[O]

> <NMREDATA_ASSIGNMENT>
Rh1, -1257.00, 1

> <NMREDATA_1D_103Rh>
-1257.00, L=Rh1

$$$$
