RhMan0925_0168.mol
  ChemDraw12172517372D

 40 47  0  0  0  0  0  0  0  0999 V2000
   -1.1504    1.5408    0.0000 Rh   0  0  0  0  0  0  0  0  0  0  0  0
   -1.1504    0.7158    0.0000 P    0  0  0  0  0  0  0  0  0  0  0  0
   -0.3254    0.7158    0.0000 N    0  0  0  0  0  0  0  0  0  0  0  0
   -1.8649    0.3033    0.0000 O    0  0  0  0  0  0  0  0  0  0  0  0
   -1.1504   -0.1092    0.0000 O    0  0  0  0  0  0  0  0  0  0  0  0
    0.0871    1.4302    0.0000 C    0  0  0  0  0  0  0  0  0  0  0  0
    0.0871    0.0013    0.0000 C    0  0  0  0  0  0  0  0  0  0  0  0
   -2.4744    0.0062    0.0000 C    0  0  0  0  0  0  0  0  0  0  0  0
   -1.3008   -0.8664    0.0000 C    0  0  0  0  0  0  0  0  0  0  0  0
   -2.0531   -1.1072    0.0000 C    0  0  0  0  0  0  0  0  0  0  0  0
   -2.6248   -0.5956    0.0000 C    0  0  0  0  0  0  0  0  0  0  0  0
   -2.9203    0.4374    0.0000 C    0  0  0  0  0  0  0  0  0  0  0  0
   -3.5167    0.2668    0.0000 C    0  0  0  0  0  0  0  0  0  0  0  0
   -3.6672   -0.3350    0.0000 C    0  0  0  0  0  0  0  0  0  0  0  0
   -3.2212   -0.7662    0.0000 C    0  0  0  0  0  0  0  0  0  0  0  0
   -3.9627    0.6980    0.0000 C    0  0  0  0  0  0  0  0  0  0  0  0
   -4.5591    0.5274    0.0000 C    0  0  0  0  0  0  0  0  0  0  0  0
   -4.7095   -0.0745    0.0000 C    0  0  0  0  0  0  0  0  0  0  0  0
   -4.2636   -0.5056    0.0000 C    0  0  0  0  0  0  0  0  0  0  0  0
   -2.2207   -1.8790    0.0000 C    0  0  0  0  0  0  0  0  0  0  0  0
   -1.6361   -2.4101    0.0000 C    0  0  0  0  0  0  0  0  0  0  0  0
   -0.8839   -2.1694    0.0000 C    0  0  0  0  0  0  0  0  0  0  0  0
   -0.7162   -1.3976    0.0000 C    0  0  0  0  0  0  0  0  0  0  0  0
   -1.8038   -3.1819    0.0000 C    0  0  0  0  0  0  0  0  0  0  0  0
   -1.2192   -3.7131    0.0000 C    0  0  0  0  0  0  0  0  0  0  0  0
   -0.4669   -3.4723    0.0000 C    0  0  0  0  0  0  0  0  0  0  0  0
   -0.2993   -2.7005    0.0000 C    0  0  0  0  0  0  0  0  0  0  0  0
   -0.2778    2.5037    0.0000 C    0  0  0  0  0  0  0  0  0  0  0  0
   -0.8611    3.0870    0.0000 C    0  0  0  0  0  0  0  0  0  0  0  0
   -1.6861    3.0870    0.0000 C    0  0  0  0  0  0  0  0  0  0  0  0
   -2.2695    2.5037    0.0000 C    0  0  0  0  0  0  0  0  0  0  0  0
   -2.0560    3.3006    0.0000 C    0  0  0  0  0  0  0  0  0  0  0  0
   -1.3415    3.7131    0.0000 C    0  0  0  0  0  0  0  0  0  0  0  0
   -0.5165    3.7131    0.0000 C    0  0  0  0  0  0  0  0  0  0  0  0
   -0.1040    2.9986    0.0000 C    0  0  0  0  0  0  0  0  0  0  0  0
    3.9950    0.8788    0.0000 B    0  5  0  0  0  0  0  0  0  0  0  0
    3.9950    0.0538    0.0000 F    0  0  0  0  0  0  0  0  0  0  0  0
    3.2806    1.2913    0.0000 F    0  0  0  0  0  0  0  0  0  0  0  0
    4.7095    1.2913    0.0000 F    0  0  0  0  0  0  0  0  0  0  0  0
    3.9950    1.7038    0.0000 F    0  0  0  0  0  0  0  0  0  0  0  0
  1  2  1  0  0
  2  3  1  0  0
  2  4  1  0  0
  2  5  1  0  0
  3  6  1  0  0
  3  7  1  0  0
  4  8  1  0  0
  5  9  1  0  0
  9 10  2  0  0
 10 11  1  0  0
 11  8  2  0  0
  8 12  1  0  0
 12 13  2  0  0
 13 14  1  0  0
 14 15  2  0  0
 15 11  1  0  0
 13 16  1  0  0
 16 17  2  0  0
 17 18  1  0  0
 18 19  2  0  0
 19 14  1  0  0
 10 20  1  0  0
 20 21  2  0  0
 21 22  1  0  0
 22 23  2  0  0
 23  9  1  0  0
 21 24  1  0  0
 24 25  2  0  0
 25 26  1  0  0
 26 27  2  0  0
 27 22  1  0  0
 28 29  1  0  0
 29 30  1  0  0
 30 31  1  0  0
 31 32  2  0  0
 32 33  1  0  0
 33 34  1  0  0
 34 35  1  0  0
 35 28  2  0  0
 28  1  1  0  0
 35  1  1  0  0
 31  1  1  0  0
 32  1  1  0  0
 36 37  1  0  0
 36 38  1  0  0
 36 39  1  0  0
 36 40  1  0  0
M  END
> <NMREDATA_VERSION>
1.1

> <NMREDATA_LEVEL>
0

> <NMREDATA_SOLVENT>
CDCl3

> <NMREDATA_TEMPERATURE>
228

> <NMREDATA_FORMULA>
C30H27BF4NO2PRh

> <NMREDATA_SMILES>
F[B](F)(F)F.CN(P1(Oc2cc3ccccc3cc2-c2c(O1)cc1ccccc1c2)[Rh]123C4=C3CCC1=C2CC4)C

> <NMREDATA_ASSIGNMENT>
Rh1, -391.00, 1

> <NMREDATA_1D_103Rh>
-391.00, L=Rh1

$$$$
