RhMan0925_0173.mol
  ChemDraw12172518002D

 76 85  0  0  0  0  0  0  0  0999 V2000
    0.3071    0.2760    0.0000 Rh   0  0  0  0  0  0  0  0  0  0  0  0
    0.3071   -0.5490    0.0000 P    0  0  0  0  0  0  0  0  0  0  0  0
    1.1321   -0.5490    0.0000 N    0  0  0  0  0  0  0  0  0  0  0  0
   -0.4074   -0.9615    0.0000 O    0  0  0  0  0  0  0  0  0  0  0  0
    0.3071   -1.3740    0.0000 O    0  0  0  0  0  0  0  0  0  0  0  0
    1.5446    0.1655    0.0000 C    0  0  0  0  0  0  0  0  0  0  0  0
    1.5446   -1.2635    0.0000 C    0  0  0  0  0  0  0  0  0  0  0  0
   -1.0169   -1.2586    0.0000 C    0  0  0  0  0  0  0  0  0  0  0  0
    0.1566   -2.1312    0.0000 C    0  0  0  0  0  0  0  0  0  0  0  0
   -0.5957   -2.3719    0.0000 C    0  0  0  0  0  0  0  0  0  0  0  0
   -1.1674   -1.8604    0.0000 C    0  0  0  0  0  0  0  0  0  0  0  0
   -1.4629   -0.8274    0.0000 C    0  0  0  0  0  0  0  0  0  0  0  0
   -2.0593   -0.9980    0.0000 C    0  0  0  0  0  0  0  0  0  0  0  0
   -2.2097   -1.5998    0.0000 C    0  0  0  0  0  0  0  0  0  0  0  0
   -1.7638   -2.0310    0.0000 C    0  0  0  0  0  0  0  0  0  0  0  0
   -2.5052   -0.5668    0.0000 C    0  0  0  0  0  0  0  0  0  0  0  0
   -3.1016   -0.7374    0.0000 C    0  0  0  0  0  0  0  0  0  0  0  0
   -3.2521   -1.3392    0.0000 C    0  0  0  0  0  0  0  0  0  0  0  0
   -2.8061   -1.7704    0.0000 C    0  0  0  0  0  0  0  0  0  0  0  0
   -0.7633   -3.1438    0.0000 C    0  0  0  0  0  0  0  0  0  0  0  0
   -0.1787   -3.6749    0.0000 C    0  0  0  0  0  0  0  0  0  0  0  0
    0.5735   -3.4342    0.0000 C    0  0  0  0  0  0  0  0  0  0  0  0
    0.7412   -2.6623    0.0000 C    0  0  0  0  0  0  0  0  0  0  0  0
   -0.3464   -4.4467    0.0000 C    0  0  0  0  0  0  0  0  0  0  0  0
    0.2382   -4.9778    0.0000 C    0  0  0  0  0  0  0  0  0  0  0  0
    0.9905   -4.7371    0.0000 C    0  0  0  0  0  0  0  0  0  0  0  0
    1.1581   -3.9653    0.0000 C    0  0  0  0  0  0  0  0  0  0  0  0
   -1.9601    1.2509    0.0000 P    0  0  0  0  0  0  0  0  0  0  0  0
   -2.2629    0.4835    0.0000 N    0  0  0  0  0  0  0  0  0  0  0  0
   -2.0816    2.0669    0.0000 O    0  0  0  0  0  0  0  0  0  0  0  0
   -2.7275    1.5537    0.0000 O    0  0  0  0  0  0  0  0  0  0  0  0
   -3.0789    0.3620    0.0000 C    0  0  0  0  0  0  0  0  0  0  0  0
   -2.1343    2.7429    0.0000 C    0  0  0  0  0  0  0  0  0  0  0  0
   -3.3767    1.9716    0.0000 C    0  0  0  0  0  0  0  0  0  0  0  0
   -3.3245    2.7597    0.0000 C    0  0  0  0  0  0  0  0  0  0  0  0
   -2.6389    3.1038    0.0000 C    0  0  0  0  0  0  0  0  0  0  0  0
   -1.5695    2.9995    0.0000 C    0  0  0  0  0  0  0  0  0  0  0  0
   -1.5093    3.6169    0.0000 C    0  0  0  0  0  0  0  0  0  0  0  0
   -2.0139    3.9777    0.0000 C    0  0  0  0  0  0  0  0  0  0  0  0
   -2.5787    3.7212    0.0000 C    0  0  0  0  0  0  0  0  0  0  0  0
   -0.9445    3.8735    0.0000 C    0  0  0  0  0  0  0  0  0  0  0  0
   -0.8843    4.4909    0.0000 C    0  0  0  0  0  0  0  0  0  0  0  0
   -1.3889    4.8517    0.0000 C    0  0  0  0  0  0  0  0  0  0  0  0
   -1.9537    4.5952    0.0000 C    0  0  0  0  0  0  0  0  0  0  0  0
   -3.9810    3.1989    0.0000 C    0  0  0  0  0  0  0  0  0  0  0  0
   -4.6896    2.8500    0.0000 C    0  0  0  0  0  0  0  0  0  0  0  0
   -4.7417    2.0619    0.0000 C    0  0  0  0  0  0  0  0  0  0  0  0
   -4.0853    1.6227    0.0000 C    0  0  0  0  0  0  0  0  0  0  0  0
   -5.3460    3.2893    0.0000 C    0  0  0  0  0  0  0  0  0  0  0  0
   -6.0546    2.9404    0.0000 C    0  0  0  0  0  0  0  0  0  0  0  0
   -6.1068    2.1523    0.0000 C    0  0  0  0  0  0  0  0  0  0  0  0
   -5.4503    1.7131    0.0000 C    0  0  0  0  0  0  0  0  0  0  0  0
   -1.7497   -0.1624    0.0000 C    0  0  0  0  0  0  0  0  0  0  0  0
    1.0593    0.9079    0.0000 O    0  0  0  0  0  0  0  0  0  0  0  0
    1.7738    1.3204    0.0000 C    0  0  0  0  0  0  0  0  0  0  0  0
    1.7738    2.1454    0.0000 N    0  0  0  0  0  0  0  0  0  0  0  0
    0.7885    2.0212    0.0000 C    0  0  0  0  0  0  0  0  0  0  0  0
    2.4883    0.9079    0.0000 C    0  0  0  0  0  0  0  0  0  0  0  0
    0.0625    1.4922    0.0000 C    0  0  0  0  0  0  0  0  0  0  0  0
   -0.3248    2.1717    0.0000 O    0  0  0  0  0  0  0  0  0  0  0  0
   -0.7344    1.2786    0.0000 O    0  0  0  0  0  0  0  0  0  0  0  0
    0.2585    2.7551    0.0000 C    0  0  0  0  0  0  0  0  0  0  0  0
    1.1496    3.0142    0.0000 C    0  0  0  0  0  0  0  0  0  0  0  0
    1.7329    3.5976    0.0000 C    0  0  0  0  0  0  0  0  0  0  0  0
    2.5298    3.3841    0.0000 C    0  0  0  0  0  0  0  0  0  0  0  0
    3.1132    3.9674    0.0000 C    0  0  0  0  0  0  0  0  0  0  0  0
    2.8997    4.7643    0.0000 C    0  0  0  0  0  0  0  0  0  0  0  0
    2.1028    4.9778    0.0000 C    0  0  0  0  0  0  0  0  0  0  0  0
    1.5194    4.3945    0.0000 C    0  0  0  0  0  0  0  0  0  0  0  0
    5.3923   -0.5665    0.0000 Sb   0  5  0  0  0  0  0  0  0  0  0  0
    5.3923   -1.3915    0.0000 F    0  0  0  0  0  0  0  0  0  0  0  0
    4.6778   -0.1540    0.0000 F    0  0  0  0  0  0  0  0  0  0  0  0
    6.1068   -0.1540    0.0000 F    0  0  0  0  0  0  0  0  0  0  0  0
    5.3923    0.2585    0.0000 F    0  0  0  0  0  0  0  0  0  0  0  0
    6.1068   -0.9790    0.0000 F    0  0  0  0  0  0  0  0  0  0  0  0
    4.6778   -0.9790    0.0000 F    0  0  0  0  0  0  0  0  0  0  0  0
  1  2  1  0  0
  2  3  1  0  0
  2  4  1  0  0
  2  5  1  0  0
  3  6  1  0  0
  3  7  1  0  0
  4  8  1  0  0
  5  9  1  0  0
  9 10  2  0  0
 10 11  1  0  0
 11  8  2  0  0
  8 12  1  0  0
 12 13  2  0  0
 13 14  1  0  0
 14 15  2  0  0
 15 11  1  0  0
 13 16  1  0  0
 16 17  2  0  0
 17 18  1  0  0
 18 19  2  0  0
 19 14  1  0  0
 10 20  1  0  0
 20 21  2  0  0
 21 22  1  0  0
 22 23  2  0  0
 23  9  1  0  0
 21 24  1  0  0
 24 25  2  0  0
 25 26  1  0  0
 26 27  2  0  0
 27 22  1  0  0
 28 29  1  0  0
 28 30  1  0  0
 28 31  1  0  0
 29 32  1  0  0
 30 33  1  0  0
 31 34  1  0  0
 34 35  2  0  0
 35 36  1  0  0
 36 33  2  0  0
 33 37  1  0  0
 37 38  2  0  0
 38 39  1  0  0
 39 40  2  0  0
 40 36  1  0  0
 38 41  1  0  0
 41 42  2  0  0
 42 43  1  0  0
 43 44  2  0  0
 44 39  1  0  0
 35 45  1  0  0
 45 46  2  0  0
 46 47  1  0  0
 47 48  2  0  0
 48 34  1  0  0
 46 49  1  0  0
 49 50  2  0  0
 50 51  1  0  0
 51 52  2  0  0
 52 47  1  0  0
 29 53  1  0  0
 28  1  1  0  0
 54 55  2  0  0
 54  1  1  0  0
 55 56  1  0  0
 56 57  1  0  0
 55 58  1  0  0
 57 59  1  0  0
 59 60  1  0  0
 59 61  2  0  0
 60 62  1  0  0
 57 63  2  0  0
 63 64  1  0  0
 64 65  2  0  0
 65 66  1  0  0
 66 67  2  0  0
 67 68  1  0  0
 68 69  2  0  0
 69 64  1  0  0
 70 71  1  0  0
 70 72  1  0  0
 70 73  1  0  0
 70 74  1  0  0
 70 75  1  0  0
 70 76  1  0  0
M  END
> <NMREDATA_VERSION>
1.1

> <NMREDATA_LEVEL>
0

> <NMREDATA_SOLVENT>
CD2Cl2

> <NMREDATA_TEMPERATURE>
183

> <NMREDATA_FORMULA>
C56H51F6N3O7P2RhSb

> <NMREDATA_SMILES>
F[Sb](F)(F)(F)(F)F.COC(=O)/C(=C/c1ccccc1)/N/C(=[O]/[Rh](P1(Oc2cc3ccccc3cc2-c2c(O1)cc1ccccc1c2)N(C)C)P1(Oc2cc3ccccc3cc2-c2c(O1)cc1ccccc1c2)N(C)C)/C

> <NMREDATA_ASSIGNMENT>
Rh1, 617.00, 1

> <NMREDATA_1D_103Rh>
617.00, L=Rh1

$$$$
