RhMan0925_0091.mol
  ChemDraw01122615482D

 42 55  0  0  0  0  0  0  0  0999 V2000
   -3.0496   -1.8224    0.0000 Fe   0  0  0  0  0  0  0  0  0  0  0  0
   -5.0722   -1.0391    0.0000 C    0  0  0  0  0  0  0  0  0  0  0  0
   -5.0722   -1.8641    0.0000 C    0  0  0  0  0  0  0  0  0  0  0  0
   -4.2875   -2.1191    0.0000 C    0  0  0  0  0  0  0  0  0  0  0  0
   -3.8026   -1.4516    0.0000 C    0  0  0  0  0  0  0  0  0  0  0  0
   -4.2875   -0.7842    0.0000 C    0  0  0  0  0  0  0  0  0  0  0  0
    1.7429   -0.5950    0.0000 Rh   0  0  0  0  0  0  0  0  0  0  0  0
    1.0285   -0.1825    0.0000 O    0  0  0  0  0  0  0  0  0  0  0  0
    1.1596   -1.1783    0.0000 O    0  0  0  0  0  0  0  0  0  0  0  0
    0.3346   -1.1783    0.0000 C    0  0  0  0  0  0  0  0  0  0  0  0
    0.2035   -0.1825    0.0000 C    0  0  0  0  0  0  0  0  0  0  0  0
   -0.3799   -0.7658    0.0000 C    0  0  0  0  0  0  0  0  0  0  0  0
    2.2810   -1.6417    0.0000 C    0  0  0  0  0  0  0  0  0  0  0  0
    2.6935   -2.3562    0.0000 O    0  0  0  0  0  0  0  0  0  0  0  0
    2.4901    0.5597    0.0000 P    0  0  0  0  0  4  0  0  0  0  0  0
    1.4789    2.6434    0.0000 C    0  0  0  0  0  0  0  0  0  0  0  0
    3.4402    1.1860    0.0000 C    0  0  0  0  0  0  0  0  0  0  0  0
    2.8191    0.0042    0.0000 C    0  0  0  0  0  0  0  0  0  0  0  0
    2.6172   -0.7956    0.0000 C    0  0  0  0  0  0  0  0  0  0  0  0
    3.2090   -1.3705    0.0000 C    0  0  0  0  0  0  0  0  0  0  0  0
    4.0027   -1.1454    0.0000 C    0  0  0  0  0  0  0  0  0  0  0  0
    4.2046   -0.3455    0.0000 C    0  0  0  0  0  0  0  0  0  0  0  0
    3.6128    0.2294    0.0000 C    0  0  0  0  0  0  0  0  0  0  0  0
    3.9534    0.5401    0.0000 C    0  0  0  0  0  0  0  0  0  0  0  0
    4.7694    0.6616    0.0000 C    0  0  0  0  0  0  0  0  0  0  0  0
    5.0722    1.4291    0.0000 C    0  0  0  0  0  0  0  0  0  0  0  0
    4.5589    2.0750    0.0000 C    0  0  0  0  0  0  0  0  0  0  0  0
    3.7430    1.9535    0.0000 C    0  0  0  0  0  0  0  0  0  0  0  0
    0.6821    2.4295    0.0000 C    0  0  0  0  0  0  0  0  0  0  0  0
    0.4690    1.6325    0.0000 C    0  0  0  0  0  0  0  0  0  0  0  0
    1.0527    1.0495    0.0000 C    0  0  0  0  0  0  0  0  0  0  0  0
    1.8494    1.2634    0.0000 C    0  0  0  0  0  0  0  0  0  0  0  0
    2.0625    2.0604    0.0000 C    0  0  0  0  0  0  0  0  0  0  0  0
   -0.1123    0.5798    0.0000 C    0  0  0  0  0  0  0  0  0  0  0  0
   -0.9302    0.6874    0.0000 H    0  0  0  0  0  0  0  0  0  0  0  0
   -0.4279    1.3419    0.0000 H    0  0  0  0  0  0  0  0  0  0  0  0
   -0.7667    1.0820    0.0000 H    0  0  0  0  0  0  0  0  0  0  0  0
   -2.0397   -1.5635    0.0000 C    0  0  0  0  0  0  0  0  0  0  0  0
   -2.0397   -2.3885    0.0000 C    0  0  0  0  0  0  0  0  0  0  0  0
   -1.2551   -2.6434    0.0000 C    0  0  0  0  0  0  0  0  0  0  0  0
   -0.7702   -1.9760    0.0000 C    0  0  0  0  0  0  0  0  0  0  0  0
   -1.2551   -1.3086    0.0000 C    0  0  0  0  0  0  0  0  0  0  0  0
  2  3  1  0  0
  3  4  1  0  0
  4  5  1  0  0
  5  6  1  0  0
  6  2  1  0  0
  1  4  1  0  0
  7  8  1  0  0
  7  9  1  0  0
  9 10  2  0  0
  8 11  1  0  0
 10 12  1  0  0
 11 12  2  0  0
  7 13  1  0  0
 13 14  3  0  0
  7 15  1  0  0
 15 16  1  0  0
 15 17  1  0  0
 15 18  1  0  0
 18 19  2  0  0
 19 20  1  0  0
 20 21  2  0  0
 21 22  1  0  0
 22 23  2  0  0
 23 18  1  0  0
 17 24  2  0  0
 24 25  1  0  0
 25 26  2  0  0
 26 27  1  0  0
 27 28  2  0  0
 28 17  1  0  0
 16 29  2  0  0
 29 30  1  0  0
 30 31  2  0  0
 31 32  1  0  0
 32 33  2  0  0
 33 16  1  0  0
 11 34  1  0  0
 34 35  1  0  0
 34 36  1  0  0
 34 37  1  0  0
 38 39  1  0  0
 39 40  1  0  0
 40 41  1  0  0
 41 42  1  0  0
 42 38  1  0  0
 10 41  1  0  0
  1 39  1  0  0
 40  1  1  0  0
 41  1  1  0  0
 42  1  1  0  0
 38  1  1  0  0
  5  1  1  0  0
  3  1  1  0  0
  2  1  1  0  0
  6  1  1  0  0
M  END
> <NMREDATA_VERSION>
1.1

> <NMREDATA_LEVEL>
0

> <NMREDATA_SOLVENT>
CDCl3

> <NMREDATA_TEMPERATURE>
298

> <NMREDATA_FORMULA>
C33H29FeO3PRh

> <NMREDATA_SMILES>
[O]#C[Rh]1(OC(=CC(=[O]1)C12C3[Fe]4567892(C1C5C34)C1C8C7C6C91)C)P(c1ccccc1)(c1ccccc1)c1ccccc1

> <NMREDATA_ASSIGNMENT>
Rh7, 293.00, 7

> <NMREDATA_1D_103Rh>
293.00, L=Rh7

$$$$
