RhMan0925_0093.mol
  ChemDraw01122615522D

 44 58  0  0  0  0  0  0  0  0999 V2000
    1.4696    0.2626    0.0000 Rh   0  0  0  0  0  0  0  0  0  0  0  0
    0.5740    0.6751    0.0000 O    0  0  0  0  0  0  0  0  0  0  0  0
    0.7052   -0.3208    0.0000 O    0  0  0  0  0  0  0  0  0  0  0  0
   -0.1198   -0.3208    0.0000 C    0  0  0  0  0  0  0  0  0  0  0  0
   -0.2510    0.6751    0.0000 C    0  0  0  0  0  0  0  0  0  0  0  0
   -0.8343    0.0917    0.0000 C    0  0  0  0  0  0  0  0  0  0  0  0
    1.9851    1.2761    0.0000 C    0  0  0  0  0  0  0  0  0  0  0  0
    2.3976    1.9906    0.0000 O    0  0  0  0  0  0  0  0  0  0  0  0
    2.2394   -0.7562    0.0000 P    0  0  0  0  0  4  0  0  0  0  0  0
    1.4093   -1.4799    0.0000 C    0  0  0  0  0  0  0  0  0  0  0  0
    3.2121   -0.9902    0.0000 C    0  0  0  0  0  0  0  0  0  0  0  0
    2.4779   -1.9003    0.0000 C    0  0  0  0  0  0  0  0  0  0  0  0
    2.2759   -2.7002    0.0000 C    0  0  0  0  0  0  0  0  0  0  0  0
    2.8678   -3.2750    0.0000 C    0  0  0  0  0  0  0  0  0  0  0  0
    3.6615   -3.0499    0.0000 C    0  0  0  0  0  0  0  0  0  0  0  0
    3.8634   -2.2500    0.0000 C    0  0  0  0  0  0  0  0  0  0  0  0
    3.2716   -1.6752    0.0000 C    0  0  0  0  0  0  0  0  0  0  0  0
    3.7253   -1.6361    0.0000 C    0  0  0  0  0  0  0  0  0  0  0  0
    4.5414   -1.5146    0.0000 C    0  0  0  0  0  0  0  0  0  0  0  0
    4.8441   -0.7472    0.0000 C    0  0  0  0  0  0  0  0  0  0  0  0
    4.3309   -0.1013    0.0000 C    0  0  0  0  0  0  0  0  0  0  0  0
    3.5149   -0.2228    0.0000 C    0  0  0  0  0  0  0  0  0  0  0  0
    0.6126   -1.6939    0.0000 C    0  0  0  0  0  0  0  0  0  0  0  0
    0.3995   -2.4909    0.0000 C    0  0  0  0  0  0  0  0  0  0  0  0
    0.9831   -3.0739    0.0000 C    0  0  0  0  0  0  0  0  0  0  0  0
    1.7799   -2.8599    0.0000 C    0  0  0  0  0  0  0  0  0  0  0  0
    1.9930   -2.0630    0.0000 C    0  0  0  0  0  0  0  0  0  0  0  0
   -0.4417    1.6554    0.0000 C    0  0  0  0  0  0  0  0  0  0  0  0
    0.1808    2.1968    0.0000 C    0  0  0  0  0  0  0  0  0  0  0  0
    0.0233    3.0066    0.0000 C    0  0  0  0  0  0  0  0  0  0  0  0
   -0.7568    3.2750    0.0000 C    0  0  0  0  0  0  0  0  0  0  0  0
   -1.3794    2.7337    0.0000 C    0  0  0  0  0  0  0  0  0  0  0  0
   -1.2218    1.9239    0.0000 C    0  0  0  0  0  0  0  0  0  0  0  0
   -2.8912   -1.7508    0.0000 Fe   0  0  0  0  0  0  0  0  0  0  0  0
   -4.8441   -2.1565    0.0000 C    0  0  0  0  0  0  0  0  0  0  0  0
   -4.8441   -2.9815    0.0000 C    0  0  0  0  0  0  0  0  0  0  0  0
   -4.0596   -3.2365    0.0000 C    0  0  0  0  0  0  0  0  0  0  0  0
   -3.5746   -2.5690    0.0000 C    0  0  0  0  0  0  0  0  0  0  0  0
   -4.0596   -1.9016    0.0000 C    0  0  0  0  0  0  0  0  0  0  0  0
   -2.0160   -1.4026    0.0000 C    0  0  0  0  0  0  0  0  0  0  0  0
   -2.0160   -2.2276    0.0000 C    0  0  0  0  0  0  0  0  0  0  0  0
   -1.2314   -2.4825    0.0000 C    0  0  0  0  0  0  0  0  0  0  0  0
   -0.7466   -1.8151    0.0000 C    0  0  0  0  0  0  0  0  0  0  0  0
   -1.2314   -1.1476    0.0000 C    0  0  0  0  0  0  0  0  0  0  0  0
  1  2  1  0  0
  1  3  1  0  0
  3  4  2  0  0
  2  5  1  0  0
  4  6  1  0  0
  5  6  2  0  0
  1  7  1  0  0
  7  8  3  0  0
  1  9  1  0  0
  9 10  1  0  0
  9 11  1  0  0
  9 12  1  0  0
 12 13  2  0  0
 13 14  1  0  0
 14 15  2  0  0
 15 16  1  0  0
 16 17  2  0  0
 17 12  1  0  0
 11 18  2  0  0
 18 19  1  0  0
 19 20  2  0  0
 20 21  1  0  0
 21 22  2  0  0
 22 11  1  0  0
 10 23  2  0  0
 23 24  1  0  0
 24 25  2  0  0
 25 26  1  0  0
 26 27  2  0  0
 27 10  1  0  0
  5 28  1  0  0
 28 29  2  0  0
 29 30  1  0  0
 30 31  2  0  0
 31 32  1  0  0
 32 33  2  0  0
 33 28  1  0  0
 35 36  1  0  0
 36 37  1  0  0
 37 38  1  0  0
 38 39  1  0  0
 39 35  1  0  0
 40 41  1  0  0
 41 42  1  0  0
 42 43  1  0  0
 43 44  1  0  0
 44 40  1  0  0
 40 34  1  0  0
 41 34  1  0  0
 38 34  1  0  0
 39 34  1  0  0
 42 34  1  0  0
 43 34  1  0  0
 44 34  1  0  0
 37 34  1  0  0
 36 34  1  0  0
 35 34  1  0  0
 44  4  1  0  0
M  END
> <NMREDATA_VERSION>
1.1

> <NMREDATA_LEVEL>
0

> <NMREDATA_SOLVENT>
CDCl3

> <NMREDATA_TEMPERATURE>
298

> <NMREDATA_FORMULA>
C38H31FeO3PRh

> <NMREDATA_SMILES>
[O]#C[Rh]1(OC(=CC(=[O]1)C12C3[Fe]4567892(C1C5C34)C1C8C7C6C91)c1ccccc1)P(c1ccccc1)(c1ccccc1)c1ccccc1

> <NMREDATA_ASSIGNMENT>
Rh1, 301.00, 1

> <NMREDATA_1D_103Rh>
301.00, L=Rh1

$$$$
