RhMan0925_0153.mol
  ChemDraw12172515492D

 49 56  0  0  0  0  0  0  0  0999 V2000
   -1.2823    0.2200    0.0000 Rh   0  0  0  0  0  0  0  0  0  0  0  0
   -0.5678    0.6325    0.0000 H    0  0  0  0  0  0  0  0  0  0  0  0
   -0.4573    0.2200    0.0000 H    0  0  0  0  0  0  0  0  0  0  0  0
   -1.3067    1.7535    0.0000 P    0  0  0  0  0  0  0  0  0  0  0  0
    1.3075   -1.7534    0.0000 P    0  0  0  0  0  0  0  0  0  0  0  0
   -0.4817    1.7535    0.0000 C    0  0  0  0  0  0  0  0  0  0  0  0
   -2.1317    1.7535    0.0000 C    0  0  0  0  0  0  0  0  0  0  0  0
   -1.3199    2.5784    0.0000 C    0  0  0  0  0  0  0  0  0  0  0  0
   -0.6023    2.9854    0.0000 C    0  0  0  0  0  0  0  0  0  0  0  0
   -0.6023    3.8104    0.0000 C    0  0  0  0  0  0  0  0  0  0  0  0
   -1.3199    4.2284    0.0000 C    0  0  0  0  0  0  0  0  0  0  0  0
   -2.0375    3.8104    0.0000 C    0  0  0  0  0  0  0  0  0  0  0  0
   -2.0375    2.9854    0.0000 C    0  0  0  0  0  0  0  0  0  0  0  0
   -0.0692    1.0390    0.0000 C    0  0  0  0  0  0  0  0  0  0  0  0
    0.7558    1.0390    0.0000 C    0  0  0  0  0  0  0  0  0  0  0  0
    1.1683    1.7535    0.0000 C    0  0  0  0  0  0  0  0  0  0  0  0
    0.7558    2.4680    0.0000 C    0  0  0  0  0  0  0  0  0  0  0  0
   -0.0692    2.4680    0.0000 C    0  0  0  0  0  0  0  0  0  0  0  0
   -2.5442    2.4680    0.0000 C    0  0  0  0  0  0  0  0  0  0  0  0
   -3.3692    2.4680    0.0000 C    0  0  0  0  0  0  0  0  0  0  0  0
   -3.7817    1.7535    0.0000 C    0  0  0  0  0  0  0  0  0  0  0  0
   -3.3692    1.0390    0.0000 C    0  0  0  0  0  0  0  0  0  0  0  0
   -2.5442    1.0390    0.0000 C    0  0  0  0  0  0  0  0  0  0  0  0
    2.1325   -1.7534    0.0000 C    0  0  0  0  0  0  0  0  0  0  0  0
    1.3075   -2.5784    0.0000 C    0  0  0  0  0  0  0  0  0  0  0  0
    0.4825   -1.7534    0.0000 C    0  0  0  0  0  0  0  0  0  0  0  0
    0.0700   -1.0389    0.0000 C    0  0  0  0  0  0  0  0  0  0  0  0
   -0.7550   -1.0389    0.0000 C    0  0  0  0  0  0  0  0  0  0  0  0
   -1.1675   -1.7534    0.0000 C    0  0  0  0  0  0  0  0  0  0  0  0
   -0.7550   -2.4678    0.0000 C    0  0  0  0  0  0  0  0  0  0  0  0
    0.0700   -2.4678    0.0000 C    0  0  0  0  0  0  0  0  0  0  0  0
    0.5931   -2.9909    0.0000 C    0  0  0  0  0  0  0  0  0  0  0  0
    0.5931   -3.8159    0.0000 C    0  0  0  0  0  0  0  0  0  0  0  0
    1.3075   -4.2284    0.0000 C    0  0  0  0  0  0  0  0  0  0  0  0
    2.0220   -3.8159    0.0000 C    0  0  0  0  0  0  0  0  0  0  0  0
    2.0220   -2.9909    0.0000 C    0  0  0  0  0  0  0  0  0  0  0  0
    2.5450   -2.4678    0.0000 C    0  0  0  0  0  0  0  0  0  0  0  0
    3.3700   -2.4678    0.0000 C    0  0  0  0  0  0  0  0  0  0  0  0
    3.7825   -1.7534    0.0000 C    0  0  0  0  0  0  0  0  0  0  0  0
    3.3700   -1.0389    0.0000 C    0  0  0  0  0  0  0  0  0  0  0  0
    2.5450   -1.0389    0.0000 C    0  0  0  0  0  0  0  0  0  0  0  0
   -2.3625    0.6325    0.0000 O    0  0  0  0  0  0  0  0  0  0  0  0
   -2.9756    0.0804    0.0000 C    0  0  0  0  0  0  0  0  0  0  0  0
   -2.6400   -0.6732    0.0000 C    0  0  0  0  0  0  0  0  0  0  0  0
   -1.8195   -0.5870    0.0000 N    0  0  0  0  0  0  0  0  0  0  0  0
   -3.7825    0.2520    0.0000 O    0  0  0  0  0  0  0  0  0  0  0  0
   -2.8115   -1.4802    0.0000 C    0  0  0  0  0  0  0  0  0  0  0  0
   -2.0971   -1.8927    0.0000 S    0  0  0  0  0  0  0  0  0  0  0  0
   -1.4840   -1.3407    0.0000 C    0  0  0  0  0  0  0  0  0  0  0  0
  1  2  1  0  0
  1  3  1  0  0
  1  4  1  0  0
  1  5  1  0  0
  4  6  1  0  0
  4  7  1  0  0
  4  8  1  0  0
  8  9  2  0  0
  9 10  1  0  0
 10 11  2  0  0
 11 12  1  0  0
 12 13  2  0  0
 13  8  1  0  0
  6 14  2  0  0
 14 15  1  0  0
 15 16  2  0  0
 16 17  1  0  0
 17 18  2  0  0
 18  6  1  0  0
  7 19  2  0  0
 19 20  1  0  0
 20 21  2  0  0
 21 22  1  0  0
 22 23  2  0  0
 23  7  1  0  0
  5 24  1  0  0
  5 25  1  0  0
  5 26  1  0  0
 26 27  2  0  0
 27 28  1  0  0
 28 29  2  0  0
 29 30  1  0  0
 30 31  2  0  0
 31 26  1  0  0
 25 32  2  0  0
 32 33  1  0  0
 33 34  2  0  0
 34 35  1  0  0
 35 36  2  0  0
 36 25  1  0  0
 24 37  2  0  0
 37 38  1  0  0
 38 39  2  0  0
 39 40  1  0  0
 40 41  2  0  0
 41 24  1  0  0
  1 42  1  0  0
 42 43  1  0  0
 43 44  1  0  0
 44 45  1  0  0
 45  1  1  0  0
 43 46  2  0  0
 44 47  2  0  0
 47 48  1  0  0
 48 49  1  0  0
 49 45  2  0  0
M  END
> <NMREDATA_VERSION>
1.1

> <NMREDATA_LEVEL>
0

> <NMREDATA_SOLVENT>
CD3OD/THF

> <NMREDATA_TEMPERATURE>
300

> <NMREDATA_FORMULA>
C40H37NO2P2RhS

> <NMREDATA_SMILES>
O=C1O[RhH2](N2=CSC=C12)(P(c1ccccc1)(c1ccccc1)c1ccccc1)P(c1ccccc1)(c1ccccc1)c1ccccc1

> <NMREDATA_ASSIGNMENT>
Rh1, 509.00, 1

> <NMREDATA_1D_103Rh>
509.00, L=Rh1

$$$$
