
  ACD/LABS12142511572D

 74 82  0  0  0  0  0  0  0  0  2 V2000
   17.1731  -10.7785    0.0000 Rh   0  0  0  0  0  0  0  0  0  0  0  0
   16.0213  -11.4435    0.0000 P    0  0  0  0  0  5  0  0  0  0  0  0
   16.0213  -10.1135    0.0000 P    0  0  0  0  0  5  0  0  0  0  0  0
   18.3249  -11.4435    0.0000 P    0  0  0  0  0  5  0  0  0  0  0  0
   18.3249  -10.1135    0.0000 P    0  0  0  0  0  5  0  0  0  0  0  0
   12.2530   -7.3427    0.0000 C    0  0  0  0  0  0  0  0  0  0  0  0
   12.2530   -8.6727    0.0000 C    0  0  0  0  0  0  0  0  0  0  0  0
   13.4048   -9.3377    0.0000 C    0  5  0  0  0  0  0  0  0  0  0  0
   14.5566   -8.6727    0.0000 C    0  0  0  0  0  0  0  0  0  0  0  0
   14.5566   -7.3427    0.0000 C    0  0  0  0  0  0  0  0  0  0  0  0
   13.4048   -6.6777    0.0000 C    0  0  0  0  0  0  0  0  0  0  0  0
   15.3009   -6.0681    0.0000 C    0  0  0  0  0  0  0  0  0  0  0  0
   15.3009   -7.3981    0.0000 C    0  0  0  0  0  0  0  0  0  0  0  0
   16.4527   -8.0631    0.0000 C    0  0  0  0  0  0  0  0  0  0  0  0
   17.6045   -7.3981    0.0000 C    0  0  0  0  0  0  0  0  0  0  0  0
   17.6045   -6.0681    0.0000 C    0  0  0  0  0  0  0  0  0  0  0  0
   16.4527   -5.4031    0.0000 C    0  0  0  0  0  0  0  0  0  0  0  0
   18.5705   -6.7331    0.0000 C    0  0  0  0  0  0  0  0  0  0  0  0
   18.5705   -8.0631    0.0000 C    0  0  0  0  0  0  0  0  0  0  0  0
   19.7223   -8.7281    0.0000 C    0  0  0  0  0  0  0  0  0  0  0  0
   20.8741   -8.0631    0.0000 C    0  0  0  0  0  0  0  0  0  0  0  0
   20.8741   -6.7331    0.0000 C    0  0  0  0  0  0  0  0  0  0  0  0
   19.7223   -6.0681    0.0000 C    0  0  0  0  0  0  0  0  0  0  0  0
   20.7871   -8.4510    0.0000 C    0  0  0  0  0  0  0  0  0  0  0  0
   20.7871   -9.7810    0.0000 C    0  0  0  0  0  0  0  0  0  0  0  0
   21.9390  -10.4460    0.0000 C    0  0  0  0  0  0  0  0  0  0  0  0
   23.0908   -9.7810    0.0000 C    0  0  0  0  0  0  0  0  0  0  0  0
   23.0908   -8.4510    0.0000 C    0  0  0  0  0  0  0  0  0  0  0  0
   21.9390   -7.7860    0.0000 C    0  0  0  0  0  0  0  0  0  0  0  0
   18.7367  -13.1060    0.0000 C    0  0  0  0  0  0  0  0  0  0  0  0
   18.7367  -14.4360    0.0000 C    0  0  0  0  0  0  0  0  0  0  0  0
   21.0404  -14.4360    0.0000 C    0  0  0  0  0  0  0  0  0  0  0  0
   21.0404  -13.1060    0.0000 C    0  0  0  0  0  0  0  0  0  0  0  0
   19.8885  -12.4410    0.0000 C    0  0  0  0  0  0  0  0  0  0  0  0
   16.0213  -13.8819    0.0000 C    0  0  0  0  0  0  0  0  0  0  0  0
   16.0213  -15.2119    0.0000 C    0  0  0  0  0  0  0  0  0  0  0  0
   17.1731  -15.8769    0.0000 C    0  0  0  0  0  0  0  0  0  0  0  0
   18.3249  -15.2119    0.0000 C    0  0  0  0  0  0  0  0  0  0  0  0
   18.3249  -13.8819    0.0000 C    0  0  0  0  0  0  0  0  0  0  0  0
   17.1731  -13.2169    0.0000 C    0  0  0  0  0  0  0  0  0  0  0  0
   12.5855  -13.8819    0.0000 C    0  0  0  0  0  0  0  0  0  0  0  0
   12.5855  -15.2119    0.0000 C    0  0  0  0  0  0  0  0  0  0  0  0
   13.7373  -15.8769    0.0000 C    0  0  0  0  0  0  0  0  0  0  0  0
   14.8891  -15.2119    0.0000 C    0  0  0  0  0  0  0  0  0  0  0  0
   14.8891  -13.8819    0.0000 C    0  0  0  0  0  0  0  0  0  0  0  0
   13.7373  -13.2169    0.0000 C    0  0  0  0  0  0  0  0  0  0  0  0
    8.7617  -12.6627    0.0000 C    0  0  0  0  0  0  0  0  0  0  0  0
    8.7617  -13.9927    0.0000 C    0  0  0  0  0  0  0  0  0  0  0  0
    9.9135  -14.6577    0.0000 C    0  0  0  0  0  0  0  0  0  0  0  0
   11.0653  -13.9927    0.0000 C    0  0  0  0  0  0  0  0  0  0  0  0
   11.0653  -12.6627    0.0000 C    0  0  0  0  0  0  0  0  0  0  0  0
    9.9135  -11.9977    0.0000 C    0  0  0  0  0  0  0  0  0  0  0  0
   19.6549  -11.4435    0.0000 C    0  0  0  0  0  0  0  0  0  0  0  0
   19.6096  -10.4578    0.0000 C    0  0  0  0  0  0  0  0  0  0  0  0
   14.6913  -11.4435    0.0000 C    0  0  0  0  0  0  0  0  0  0  0  0
   14.0144  -10.0027    0.0000 C    0  0  0  0  0  0  0  0  0  0  0  0
   11.1012   -6.6777    0.0000 O    0  0  0  0  0  0  0  0  0  0  0  0
   16.4527   -4.0731    0.0000 O    0  0  0  0  0  0  0  0  0  0  0  0
   19.7223   -4.7381    0.0000 O    0  0  0  0  0  0  0  0  0  0  0  0
   24.2426   -7.7860    0.0000 O    0  0  0  0  0  0  0  0  0  0  0  0
   17.1731  -17.2069    0.0000 O    0  0  0  0  0  0  0  0  0  0  0  0
   13.7373  -17.2069    0.0000 O    0  0  0  0  0  0  0  0  0  0  0  0
    7.6099  -14.6577    0.0000 O    0  0  0  0  0  0  0  0  0  0  0  0
   19.8885  -15.1010    0.0000 C    0  0  0  0  0  0  0  0  0  0  0  0
   19.8885  -16.4310    0.0000 O    0  0  0  0  0  0  0  0  0  0  0  0
    6.4581  -13.9927    0.0000 C    0  0  0  0  0  0  0  0  0  0  0  0
   14.8891  -17.8719    0.0000 C    0  0  0  0  0  0  0  0  0  0  0  0
   18.3249  -17.8719    0.0000 C    0  0  0  0  0  0  0  0  0  0  0  0
   21.0404  -17.0961    0.0000 C    0  0  0  0  0  0  0  0  0  0  0  0
   25.3944   -8.4510    0.0000 C    0  0  0  0  0  0  0  0  0  0  0  0
   18.5705   -4.0731    0.0000 C    0  0  0  0  0  0  0  0  0  0  0  0
   15.3009   -3.4081    0.0000 C    0  0  0  0  0  0  0  0  0  0  0  0
    9.9493   -7.3427    0.0000 C    0  0  0  0  0  0  0  0  0  0  0  0
   25.6866  -11.9380    0.0000 Na   0  3  0  0  0  0  0  0  0  0  0  0
  1  2  1  0  0  0  0
  1  3  1  0  0  0  0
  1  4  1  0  0  0  0
  1  5  1  0  0  0  0
  6  7  2  0  0  0  0
  7  8  1  0  0  0  0
  8  9  2  0  0  0  0
  9 10  1  0  0  0  0
 10 11  2  0  0  0  0
 11  6  1  0  0  0  0
 12 13  2  0  0  0  0
 13 14  1  0  0  0  0
 14 15  2  0  0  0  0
 15 16  1  0  0  0  0
 16 17  2  0  0  0  0
 17 12  1  0  0  0  0
 18 19  2  0  0  0  0
 19 20  1  0  0  0  0
 20 21  2  0  0  0  0
 21 22  1  0  0  0  0
 22 23  2  0  0  0  0
 23 18  1  0  0  0  0
 24 25  2  0  0  0  0
 25 26  1  0  0  0  0
 26 27  2  0  0  0  0
 27 28  1  0  0  0  0
 28 29  2  0  0  0  0
 29 24  1  0  0  0  0
 30 31  2  0  0  0  0
 31 64  1  0  0  0  0
 64 32  2  0  0  0  0
 32 33  1  0  0  0  0
 33 34  2  0  0  0  0
 34 30  1  0  0  0  0
 35 36  2  0  0  0  0
 36 37  1  0  0  0  0
 37 38  2  0  0  0  0
 38 39  1  0  0  0  0
 39 40  2  0  0  0  0
 40 35  1  0  0  0  0
 41 42  2  0  0  0  0
 42 43  1  0  0  0  0
 43 44  2  0  0  0  0
 44 45  1  0  0  0  0
 45 46  2  0  0  0  0
 46 41  1  0  0  0  0
 47 48  2  0  0  0  0
 48 49  1  0  0  0  0
 49 50  2  0  0  0  0
 50 51  1  0  0  0  0
 51 52  2  0  0  0  0
 52 47  1  0  0  0  0
 51  2  1  0  0  0  0
 46  2  1  0  0  0  0
 40  4  1  0  0  0  0
 34  4  1  0  0  0  0
 20  5  1  0  0  0  0
 25  5  1  0  0  0  0
 14  3  1  0  0  0  0
  9  3  1  0  0  0  0
  4 53  1  0  0  0  0
 54  5  1  0  0  0  0
  2 55  1  0  0  0  0
  3 56  1  0  0  0  0
 55 56  1  0  0  0  0
 53 54  1  0  0  0  0
  6 57  1  0  0  0  0
 17 58  1  0  0  0  0
 23 59  1  0  0  0  0
 28 60  1  0  0  0  0
 37 61  1  0  0  0  0
 43 62  1  0  0  0  0
 48 63  1  0  0  0  0
 64 65  1  0  0  0  0
 63 66  1  0  0  0  0
 62 67  1  0  0  0  0
 61 68  1  0  0  0  0
 65 69  1  0  0  0  0
 60 70  1  0  0  0  0
 59 71  1  0  0  0  0
 58 72  1  0  0  0  0
 57 73  1  0  0  0  0
M  END
> <NMREDATA_VERSION>
1.1

> <NMREDATA_LEVEL>
0

> <NMREDATA_SOLVENT>
THF-d8

> <NMREDATA_TEMPERATURE>
298

> <NMREDATA_FORMULA>
C60H69NaO8P4Rh

> <NMREDATA_SMILES>
COc1ccc(cc1)P1(CCP([Rh]21P(CCP2(c1ccc(cc1)OC)c1ccc(cc1)OC)(c1ccc(cc1)OC)c1ccc(cc1)OC)(c1ccc(cc1)OC)c1ccc(cc1)OC)c1ccc(cc1)OC.[NaH]

> <NMREDATA_ASSIGNMENT>
Rh1, -957.00, 1

> <NMREDATA_1D_103Rh>
-957.00, L=Rh1

$$$$
