
  ACD/LABS12142511552D

 66 74  0  0  0  0  0  0  0  0  2 V2000
   16.1966  -10.1055    0.0000 Rh   0  0  0  0  0  0  0  0  0  0  0  0
   15.0448  -10.7705    0.0000 P    0  0  0  0  0  5  0  0  0  0  0  0
   15.0448   -9.4405    0.0000 P    0  0  0  0  0  5  0  0  0  0  0  0
   17.3484  -10.7705    0.0000 P    0  0  0  0  0  5  0  0  0  0  0  0
   17.3484   -9.4405    0.0000 P    0  0  0  0  0  5  0  0  0  0  0  0
   11.2765   -6.6697    0.0000 C    0  0  0  0  0  0  0  0  0  0  0  0
   11.2765   -7.9997    0.0000 C    0  0  0  0  0  0  0  0  0  0  0  0
   12.4283   -8.6647    0.0000 C    0  5  0  0  0  0  0  0  0  0  0  0
   13.5801   -7.9997    0.0000 C    0  0  0  0  0  0  0  0  0  0  0  0
   13.5801   -6.6697    0.0000 C    0  0  0  0  0  0  0  0  0  0  0  0
   12.4283   -6.0047    0.0000 C    0  0  0  0  0  0  0  0  0  0  0  0
   14.3244   -5.3951    0.0000 C    0  0  0  0  0  0  0  0  0  0  0  0
   14.3244   -6.7251    0.0000 C    0  0  0  0  0  0  0  0  0  0  0  0
   15.4762   -7.3901    0.0000 C    0  0  0  0  0  0  0  0  0  0  0  0
   16.6280   -6.7251    0.0000 C    0  0  0  0  0  0  0  0  0  0  0  0
   16.6280   -5.3951    0.0000 C    0  0  0  0  0  0  0  0  0  0  0  0
   15.4762   -4.7301    0.0000 C    0  0  0  0  0  0  0  0  0  0  0  0
   17.5940   -6.0601    0.0000 C    0  0  0  0  0  0  0  0  0  0  0  0
   17.5940   -7.3901    0.0000 C    0  0  0  0  0  0  0  0  0  0  0  0
   18.7458   -8.0551    0.0000 C    0  0  0  0  0  0  0  0  0  0  0  0
   19.8976   -7.3901    0.0000 C    0  0  0  0  0  0  0  0  0  0  0  0
   19.8976   -6.0601    0.0000 C    0  0  0  0  0  0  0  0  0  0  0  0
   18.7458   -5.3951    0.0000 C    0  0  0  0  0  0  0  0  0  0  0  0
   19.8106   -7.7780    0.0000 C    0  0  0  0  0  0  0  0  0  0  0  0
   19.8106   -9.1080    0.0000 C    0  0  0  0  0  0  0  0  0  0  0  0
   20.9625   -9.7730    0.0000 C    0  0  0  0  0  0  0  0  0  0  0  0
   22.1143   -9.1080    0.0000 C    0  0  0  0  0  0  0  0  0  0  0  0
   22.1143   -7.7780    0.0000 C    0  0  0  0  0  0  0  0  0  0  0  0
   20.9625   -7.1130    0.0000 C    0  0  0  0  0  0  0  0  0  0  0  0
   17.7602  -12.4330    0.0000 C    0  0  0  0  0  0  0  0  0  0  0  0
   17.7602  -13.7630    0.0000 C    0  0  0  0  0  0  0  0  0  0  0  0
   20.0638  -13.7630    0.0000 C    0  0  0  0  0  0  0  0  0  0  0  0
   20.0638  -12.4330    0.0000 C    0  0  0  0  0  0  0  0  0  0  0  0
   18.9120  -11.7680    0.0000 C    0  0  0  0  0  0  0  0  0  0  0  0
   15.0448  -13.2089    0.0000 C    0  0  0  0  0  0  0  0  0  0  0  0
   15.0448  -14.5389    0.0000 C    0  0  0  0  0  0  0  0  0  0  0  0
   16.1966  -15.2039    0.0000 C    0  0  0  0  0  0  0  0  0  0  0  0
   17.3484  -14.5389    0.0000 C    0  0  0  0  0  0  0  0  0  0  0  0
   17.3484  -13.2089    0.0000 C    0  0  0  0  0  0  0  0  0  0  0  0
   16.1966  -12.5439    0.0000 C    0  0  0  0  0  0  0  0  0  0  0  0
   11.6090  -13.2089    0.0000 C    0  0  0  0  0  0  0  0  0  0  0  0
   11.6090  -14.5389    0.0000 C    0  0  0  0  0  0  0  0  0  0  0  0
   12.7608  -15.2039    0.0000 C    0  0  0  0  0  0  0  0  0  0  0  0
   13.9126  -14.5389    0.0000 C    0  0  0  0  0  0  0  0  0  0  0  0
   13.9126  -13.2089    0.0000 C    0  0  0  0  0  0  0  0  0  0  0  0
   12.7608  -12.5439    0.0000 C    0  0  0  0  0  0  0  0  0  0  0  0
    7.7852  -11.9897    0.0000 C    0  0  0  0  0  0  0  0  0  0  0  0
    7.7852  -13.3197    0.0000 C    0  0  0  0  0  0  0  0  0  0  0  0
    8.9370  -13.9847    0.0000 C    0  0  0  0  0  0  0  0  0  0  0  0
   10.0888  -13.3197    0.0000 C    0  0  0  0  0  0  0  0  0  0  0  0
   10.0888  -11.9897    0.0000 C    0  0  0  0  0  0  0  0  0  0  0  0
    8.9370  -11.3247    0.0000 C    0  0  0  0  0  0  0  0  0  0  0  0
   18.6784  -10.7705    0.0000 C    0  0  0  0  0  0  0  0  0  0  0  0
   18.6331   -9.7848    0.0000 C    0  0  0  0  0  0  0  0  0  0  0  0
   13.7148  -10.7705    0.0000 C    0  0  0  0  0  0  0  0  0  0  0  0
   13.0379   -9.3297    0.0000 C    0  0  0  0  0  0  0  0  0  0  0  0
   10.1246   -6.0047    0.0000 F    0  0  0  0  0  0  0  0  0  0  0  0
   15.4762   -3.4001    0.0000 F    0  0  0  0  0  0  0  0  0  0  0  0
   18.7458   -4.0651    0.0000 F    0  0  0  0  0  0  0  0  0  0  0  0
   23.2661   -7.1130    0.0000 F    0  0  0  0  0  0  0  0  0  0  0  0
   16.1966  -16.5339    0.0000 F    0  0  0  0  0  0  0  0  0  0  0  0
   12.7608  -16.5339    0.0000 F    0  0  0  0  0  0  0  0  0  0  0  0
    6.6334  -13.9847    0.0000 F    0  0  0  0  0  0  0  0  0  0  0  0
   18.9120  -14.4280    0.0000 C    0  0  0  0  0  0  0  0  0  0  0  0
   18.9120  -15.7580    0.0000 F    0  0  0  0  0  0  0  0  0  0  0  0
   24.4047  -10.0631    0.0000 Na   0  3  0  0  0  0  0  0  0  0  0  0
  1  2  1  0  0  0  0
  1  3  1  0  0  0  0
  1  4  1  0  0  0  0
  1  5  1  0  0  0  0
  6  7  2  0  0  0  0
  7  8  1  0  0  0  0
  8  9  2  0  0  0  0
  9 10  1  0  0  0  0
 10 11  2  0  0  0  0
 11  6  1  0  0  0  0
 12 13  2  0  0  0  0
 13 14  1  0  0  0  0
 14 15  2  0  0  0  0
 15 16  1  0  0  0  0
 16 17  2  0  0  0  0
 17 12  1  0  0  0  0
 18 19  2  0  0  0  0
 19 20  1  0  0  0  0
 20 21  2  0  0  0  0
 21 22  1  0  0  0  0
 22 23  2  0  0  0  0
 23 18  1  0  0  0  0
 24 25  2  0  0  0  0
 25 26  1  0  0  0  0
 26 27  2  0  0  0  0
 27 28  1  0  0  0  0
 28 29  2  0  0  0  0
 29 24  1  0  0  0  0
 30 31  2  0  0  0  0
 31 64  1  0  0  0  0
 64 32  2  0  0  0  0
 32 33  1  0  0  0  0
 33 34  2  0  0  0  0
 34 30  1  0  0  0  0
 35 36  2  0  0  0  0
 36 37  1  0  0  0  0
 37 38  2  0  0  0  0
 38 39  1  0  0  0  0
 39 40  2  0  0  0  0
 40 35  1  0  0  0  0
 41 42  2  0  0  0  0
 42 43  1  0  0  0  0
 43 44  2  0  0  0  0
 44 45  1  0  0  0  0
 45 46  2  0  0  0  0
 46 41  1  0  0  0  0
 47 48  2  0  0  0  0
 48 49  1  0  0  0  0
 49 50  2  0  0  0  0
 50 51  1  0  0  0  0
 51 52  2  0  0  0  0
 52 47  1  0  0  0  0
 51  2  1  0  0  0  0
 46  2  1  0  0  0  0
 40  4  1  0  0  0  0
 34  4  1  0  0  0  0
 20  5  1  0  0  0  0
 25  5  1  0  0  0  0
 14  3  1  0  0  0  0
  9  3  1  0  0  0  0
  4 53  1  0  0  0  0
 54  5  1  0  0  0  0
  2 55  1  0  0  0  0
  3 56  1  0  0  0  0
 55 56  1  0  0  0  0
 53 54  1  0  0  0  0
  6 57  1  0  0  0  0
 17 58  1  0  0  0  0
 23 59  1  0  0  0  0
 28 60  1  0  0  0  0
 37 61  1  0  0  0  0
 43 62  1  0  0  0  0
 48 63  1  0  0  0  0
 64 65  1  0  0  0  0
M  END
> <NMREDATA_VERSION>
1.1

> <NMREDATA_LEVEL>
0

> <NMREDATA_SOLVENT>
THF-d8

> <NMREDATA_TEMPERATURE>
298

> <NMREDATA_FORMULA>
C52H45F8NaP4Rh

> <NMREDATA_SMILES>
Fc1ccc(cc1)P1(CCP([Rh]21P(CCP2(c1ccc(cc1)F)c1ccc(cc1)F)(c1ccc(cc1)F)c1ccc(cc1)F)(c1ccc(cc1)F)c1ccc(cc1)F)c1ccc(cc1)F.[NaH]

> <NMREDATA_ASSIGNMENT>
Rh1, -954.00, 1

> <NMREDATA_1D_103Rh>
-954.00, L=Rh1

$$$$
