RhMan0925_0155.mol
  ChemDraw12172516052D

 24 22  0  0  0  0  0  0  0  0999 V2000
   -1.1756    0.1922    0.0000 Rh   0  1  0  0  0  0  0  0  0  0  0  0
   -1.1756   -0.6328    0.0000 O    0  0  0  0  0  0  0  0  0  0  0  0
   -1.8901    0.6047    0.0000 O    0  0  0  0  0  0  0  0  0  0  0  0
   -0.4611    0.6047    0.0000 O    0  0  0  0  0  0  0  0  0  0  0  0
   -1.1756    1.0172    0.0000 O    0  0  0  0  0  0  0  0  0  0  0  0
   -0.4611   -0.2203    0.0000 O    0  0  0  0  0  0  0  0  0  0  0  0
   -1.8901   -0.2203    0.0000 O    0  0  0  0  0  0  0  0  0  0  0  0
   -1.8901    1.4297    0.0000 H    0  0  0  0  0  0  0  0  0  0  0  0
   -0.4611    1.4297    0.0000 H    0  0  0  0  0  0  0  0  0  0  0  0
    0.2533    0.1922    0.0000 H    0  0  0  0  0  0  0  0  0  0  0  0
    0.3358    0.8182    0.0000 H    0  0  0  0  0  0  0  0  0  0  0  0
    0.3358   -0.4338    0.0000 H    0  0  0  0  0  0  0  0  0  0  0  0
   -0.2476   -1.0172    0.0000 H    0  0  0  0  0  0  0  0  0  0  0  0
   -0.9621   -1.4297    0.0000 H    0  0  0  0  0  0  0  0  0  0  0  0
   -1.8901   -1.0453    0.0000 H    0  0  0  0  0  0  0  0  0  0  0  0
   -2.4734   -0.8037    0.0000 H    0  0  0  0  0  0  0  0  0  0  0  0
   -2.7151   -0.2203    0.0000 H    0  0  0  0  0  0  0  0  0  0  0  0
   -2.7151    0.6047    0.0000 H    0  0  0  0  0  0  0  0  0  0  0  0
   -2.6045    1.0172    0.0000 H    0  0  0  0  0  0  0  0  0  0  0  0
    2.0006    0.3144    0.0000 S    0  0  0  0  0  0  0  0  0  0  0  0
    2.7151    0.7269    0.0000 O    0  5  0  0  0  0  0  0  0  0  0  0
    1.2861    0.7269    0.0000 O    0  0  0  0  0  0  0  0  0  0  0  0
    2.0006   -0.5106    0.0000 O    0  5  0  0  0  0  0  0  0  0  0  0
    2.0006    1.1394    0.0000 O    0  0  0  0  0  0  0  0  0  0  0  0
  1  2  1  0  0
  1  3  1  0  0
  1  4  1  0  0
  1  5  1  0  0
  1  6  1  0  0
  1  7  1  0  0
  5  8  1  0  0
  5  9  1  0  0
  4 10  1  0  0
  4 11  1  0  0
  6 12  1  0  0
  6 13  1  0  0
  2 14  1  0  0
  2 15  1  0  0
  7 16  1  0  0
  7 17  1  0  0
  3 18  1  0  0
  3 19  1  0  0
 20 21  1  0  0
 20 22  2  0  0
 20 23  1  0  0
 20 24  2  0  0
M  END
> <NMREDATA_VERSION>
1.1

> <NMREDATA_LEVEL>
0

> <NMREDATA_SOLVENT>
H2O/H2SO4

> <NMREDATA_FORMULA>
H14O10RhS

> <NMREDATA_SMILES>
[OH2][Rh]([OH2])([OH2])([OH2])([OH2])[OH2].OS(=O)(=O)O

> <NMREDATA_ASSIGNMENT>
Rh1, 9892.00, 1

> <NMREDATA_1D_103Rh>
9892.00, L=Rh1

$$$$
