RhMan0925_0169.mol
  ChemDraw12172517382D

 66 78  0  0  0  0  0  0  0  0999 V2000
    0.2770    0.3391    0.0000 Rh   0  0  0  0  0  0  0  0  0  0  0  0
    0.2770   -0.4859    0.0000 P    0  0  0  0  0  0  0  0  0  0  0  0
    1.1020   -0.4859    0.0000 N    0  0  0  0  0  0  0  0  0  0  0  0
   -0.4375   -0.8984    0.0000 O    0  0  0  0  0  0  0  0  0  0  0  0
    0.2770   -1.3109    0.0000 O    0  0  0  0  0  0  0  0  0  0  0  0
    1.5145    0.2285    0.0000 C    0  0  0  0  0  0  0  0  0  0  0  0
    1.5145   -1.2004    0.0000 C    0  0  0  0  0  0  0  0  0  0  0  0
   -1.0470   -1.1955    0.0000 C    0  0  0  0  0  0  0  0  0  0  0  0
    0.1265   -2.0682    0.0000 C    0  0  0  0  0  0  0  0  0  0  0  0
   -0.6257   -2.3089    0.0000 C    0  0  0  0  0  0  0  0  0  0  0  0
   -1.1975   -1.7974    0.0000 C    0  0  0  0  0  0  0  0  0  0  0  0
   -1.4930   -0.7644    0.0000 C    0  0  0  0  0  0  0  0  0  0  0  0
   -2.0894   -0.9350    0.0000 C    0  0  0  0  0  0  0  0  0  0  0  0
   -2.2398   -1.5368    0.0000 C    0  0  0  0  0  0  0  0  0  0  0  0
   -1.7939   -1.9680    0.0000 C    0  0  0  0  0  0  0  0  0  0  0  0
   -2.5353   -0.5038    0.0000 C    0  0  0  0  0  0  0  0  0  0  0  0
   -3.1317   -0.6744    0.0000 C    0  0  0  0  0  0  0  0  0  0  0  0
   -3.2822   -1.2762    0.0000 C    0  0  0  0  0  0  0  0  0  0  0  0
   -2.8362   -1.7074    0.0000 C    0  0  0  0  0  0  0  0  0  0  0  0
   -0.7934   -3.0807    0.0000 C    0  0  0  0  0  0  0  0  0  0  0  0
   -0.2088   -3.6118    0.0000 C    0  0  0  0  0  0  0  0  0  0  0  0
    0.5435   -3.3711    0.0000 C    0  0  0  0  0  0  0  0  0  0  0  0
    0.7111   -2.5993    0.0000 C    0  0  0  0  0  0  0  0  0  0  0  0
   -0.3765   -4.3837    0.0000 C    0  0  0  0  0  0  0  0  0  0  0  0
    0.2081   -4.9148    0.0000 C    0  0  0  0  0  0  0  0  0  0  0  0
    0.9604   -4.6741    0.0000 C    0  0  0  0  0  0  0  0  0  0  0  0
    1.1281   -3.9022    0.0000 C    0  0  0  0  0  0  0  0  0  0  0  0
    1.1496    1.3019    0.0000 C    0  0  0  0  0  0  0  0  0  0  0  0
    0.5662    1.8853    0.0000 C    0  0  0  0  0  0  0  0  0  0  0  0
   -0.2588    1.8853    0.0000 C    0  0  0  0  0  0  0  0  0  0  0  0
   -0.8421    1.3019    0.0000 C    0  0  0  0  0  0  0  0  0  0  0  0
   -0.6286    2.0988    0.0000 C    0  0  0  0  0  0  0  0  0  0  0  0
    0.0858    2.5113    0.0000 C    0  0  0  0  0  0  0  0  0  0  0  0
    0.9108    2.5113    0.0000 C    0  0  0  0  0  0  0  0  0  0  0  0
    1.3233    1.7969    0.0000 C    0  0  0  0  0  0  0  0  0  0  0  0
   -1.9902    1.3140    0.0000 P    0  0  0  0  0  0  0  0  0  0  0  0
   -2.2930    0.5466    0.0000 N    0  0  0  0  0  0  0  0  0  0  0  0
   -2.1117    2.1300    0.0000 O    0  0  0  0  0  0  0  0  0  0  0  0
   -2.7576    1.6168    0.0000 O    0  0  0  0  0  0  0  0  0  0  0  0
   -3.1090    0.4251    0.0000 C    0  0  0  0  0  0  0  0  0  0  0  0
   -2.1644    2.8060    0.0000 C    0  0  0  0  0  0  0  0  0  0  0  0
   -3.4068    2.0346    0.0000 C    0  0  0  0  0  0  0  0  0  0  0  0
   -3.3546    2.8227    0.0000 C    0  0  0  0  0  0  0  0  0  0  0  0
   -2.6689    3.1668    0.0000 C    0  0  0  0  0  0  0  0  0  0  0  0
   -1.5996    3.0626    0.0000 C    0  0  0  0  0  0  0  0  0  0  0  0
   -1.5394    3.6800    0.0000 C    0  0  0  0  0  0  0  0  0  0  0  0
   -2.0440    4.0408    0.0000 C    0  0  0  0  0  0  0  0  0  0  0  0
   -2.6088    3.7842    0.0000 C    0  0  0  0  0  0  0  0  0  0  0  0
   -0.9746    3.9366    0.0000 C    0  0  0  0  0  0  0  0  0  0  0  0
   -0.9144    4.5540    0.0000 C    0  0  0  0  0  0  0  0  0  0  0  0
   -1.4190    4.9148    0.0000 C    0  0  0  0  0  0  0  0  0  0  0  0
   -1.9838    4.6582    0.0000 C    0  0  0  0  0  0  0  0  0  0  0  0
   -4.0111    3.2620    0.0000 C    0  0  0  0  0  0  0  0  0  0  0  0
   -4.7197    2.9131    0.0000 C    0  0  0  0  0  0  0  0  0  0  0  0
   -4.7718    2.1250    0.0000 C    0  0  0  0  0  0  0  0  0  0  0  0
   -4.1154    1.6858    0.0000 C    0  0  0  0  0  0  0  0  0  0  0  0
   -5.3761    3.3523    0.0000 C    0  0  0  0  0  0  0  0  0  0  0  0
   -6.0847    3.0034    0.0000 C    0  0  0  0  0  0  0  0  0  0  0  0
   -6.1369    2.2153    0.0000 C    0  0  0  0  0  0  0  0  0  0  0  0
   -5.4804    1.7761    0.0000 C    0  0  0  0  0  0  0  0  0  0  0  0
   -1.7797   -0.0994    0.0000 C    0  0  0  0  0  0  0  0  0  0  0  0
    5.4224   -0.3229    0.0000 B    0  5  0  0  0  0  0  0  0  0  0  0
    5.4224   -1.1479    0.0000 F    0  0  0  0  0  0  0  0  0  0  0  0
    4.7079    0.0896    0.0000 F    0  0  0  0  0  0  0  0  0  0  0  0
    6.1369    0.0896    0.0000 F    0  0  0  0  0  0  0  0  0  0  0  0
    5.4224    0.5021    0.0000 F    0  0  0  0  0  0  0  0  0  0  0  0
  1  2  1  0  0
  2  3  1  0  0
  2  4  1  0  0
  2  5  1  0  0
  3  6  1  0  0
  3  7  1  0  0
  4  8  1  0  0
  5  9  1  0  0
  9 10  2  0  0
 10 11  1  0  0
 11  8  2  0  0
  8 12  1  0  0
 12 13  2  0  0
 13 14  1  0  0
 14 15  2  0  0
 15 11  1  0  0
 13 16  1  0  0
 16 17  2  0  0
 17 18  1  0  0
 18 19  2  0  0
 19 14  1  0  0
 10 20  1  0  0
 20 21  2  0  0
 21 22  1  0  0
 22 23  2  0  0
 23  9  1  0  0
 21 24  1  0  0
 24 25  2  0  0
 25 26  1  0  0
 26 27  2  0  0
 27 22  1  0  0
 28 29  1  0  0
 29 30  1  0  0
 30 31  1  0  0
 31 32  2  0  0
 32 33  1  0  0
 33 34  1  0  0
 34 35  1  0  0
 35 28  2  0  0
 28  1  1  0  0
 35  1  1  0  0
 31  1  1  0  0
 32  1  1  0  0
 36 37  1  0  0
 36 38  1  0  0
 36 39  1  0  0
 37 40  1  0  0
 38 41  1  0  0
 39 42  1  0  0
 42 43  2  0  0
 43 44  1  0  0
 44 41  2  0  0
 41 45  1  0  0
 45 46  2  0  0
 46 47  1  0  0
 47 48  2  0  0
 48 44  1  0  0
 46 49  1  0  0
 49 50  2  0  0
 50 51  1  0  0
 51 52  2  0  0
 52 47  1  0  0
 43 53  1  0  0
 53 54  2  0  0
 54 55  1  0  0
 55 56  2  0  0
 56 42  1  0  0
 54 57  1  0  0
 57 58  2  0  0
 58 59  1  0  0
 59 60  2  0  0
 60 55  1  0  0
 37 61  1  0  0
 36  1  1  0  0
 62 63  1  0  0
 62 64  1  0  0
 62 65  1  0  0
 62 66  1  0  0
M  END
> <NMREDATA_VERSION>
1.1

> <NMREDATA_LEVEL>
0

> <NMREDATA_SOLVENT>
CDCl3

> <NMREDATA_TEMPERATURE>
228

> <NMREDATA_FORMULA>
C52H46BF4N2O4P2Rh

> <NMREDATA_SMILES>
F[B](F)(F)F.CN(P1(Oc2cc3ccccc3cc2-c2c(O1)cc1ccccc1c2)[Rh]123(C4=C3CCC1=C2CC4)P1(Oc2cc3ccccc3cc2-c2c(O1)cc1ccccc1c2)N(C)C)C

> <NMREDATA_ASSIGNMENT>
Rh1, -374.00, 1

> <NMREDATA_1D_103Rh>
-374.00, L=Rh1

$$$$
