RhMan0925_0090.mol
  ChemDraw01122615492D

 42 55  0  0  0  0  0  0  0  0999 V2000
   -3.1302   -0.5164    0.0000 Fe   0  0  0  0  0  0  0  0  0  0  0  0
   -5.0832   -0.9221    0.0000 C    0  0  0  0  0  0  0  0  0  0  0  0
   -5.0832   -1.7471    0.0000 C    0  0  0  0  0  0  0  0  0  0  0  0
   -4.2986   -2.0021    0.0000 C    0  0  0  0  0  0  0  0  0  0  0  0
   -3.8136   -1.3346    0.0000 C    0  0  0  0  0  0  0  0  0  0  0  0
   -4.2986   -0.6672    0.0000 C    0  0  0  0  0  0  0  0  0  0  0  0
    1.7088    0.8004    0.0000 Rh   0  0  0  0  0  0  0  0  0  0  0  0
    0.8132    1.2129    0.0000 O    0  0  0  0  0  0  0  0  0  0  0  0
    0.9444    0.2170    0.0000 O    0  0  0  0  0  0  0  0  0  0  0  0
    0.1194    0.2170    0.0000 C    0  0  0  0  0  0  0  0  0  0  0  0
   -0.0118    1.2129    0.0000 C    0  0  0  0  0  0  0  0  0  0  0  0
   -0.5951    0.6295    0.0000 C    0  0  0  0  0  0  0  0  0  0  0  0
    2.2243    1.8139    0.0000 C    0  0  0  0  0  0  0  0  0  0  0  0
    2.6368    2.5284    0.0000 O    0  0  0  0  0  0  0  0  0  0  0  0
    2.4786   -0.2184    0.0000 P    0  0  0  0  0  4  0  0  0  0  0  0
    1.6485   -0.9421    0.0000 C    0  0  0  0  0  0  0  0  0  0  0  0
    3.4512   -0.4524    0.0000 C    0  0  0  0  0  0  0  0  0  0  0  0
    2.7171   -1.3625    0.0000 C    0  0  0  0  0  0  0  0  0  0  0  0
    2.5151   -2.1624    0.0000 C    0  0  0  0  0  0  0  0  0  0  0  0
    3.1069   -2.7373    0.0000 C    0  0  0  0  0  0  0  0  0  0  0  0
    3.9006   -2.5122    0.0000 C    0  0  0  0  0  0  0  0  0  0  0  0
    4.1025   -1.7122    0.0000 C    0  0  0  0  0  0  0  0  0  0  0  0
    3.5107   -1.1374    0.0000 C    0  0  0  0  0  0  0  0  0  0  0  0
    3.9644   -1.0984    0.0000 C    0  0  0  0  0  0  0  0  0  0  0  0
    4.7804   -0.9768    0.0000 C    0  0  0  0  0  0  0  0  0  0  0  0
    5.0832   -0.2094    0.0000 C    0  0  0  0  0  0  0  0  0  0  0  0
    4.5700    0.4365    0.0000 C    0  0  0  0  0  0  0  0  0  0  0  0
    3.7540    0.3150    0.0000 C    0  0  0  0  0  0  0  0  0  0  0  0
    0.8518   -1.1561    0.0000 C    0  0  0  0  0  0  0  0  0  0  0  0
    0.6387   -1.9531    0.0000 C    0  0  0  0  0  0  0  0  0  0  0  0
    1.2223   -2.5361    0.0000 C    0  0  0  0  0  0  0  0  0  0  0  0
    2.0191   -2.3222    0.0000 C    0  0  0  0  0  0  0  0  0  0  0  0
    2.2322   -1.5251    0.0000 C    0  0  0  0  0  0  0  0  0  0  0  0
   -0.3274    1.9751    0.0000 C    0  0  0  0  0  0  0  0  0  0  0  0
   -1.1454    2.0828    0.0000 H    0  0  0  0  0  0  0  0  0  0  0  0
   -0.6432    2.7373    0.0000 H    0  0  0  0  0  0  0  0  0  0  0  0
   -0.9820    2.4773    0.0000 H    0  0  0  0  0  0  0  0  0  0  0  0
   -2.2550   -0.1682    0.0000 C    0  0  0  0  0  0  0  0  0  0  0  0
   -2.2550   -0.9932    0.0000 C    0  0  0  0  0  0  0  0  0  0  0  0
   -1.4703   -1.2481    0.0000 C    0  0  0  0  0  0  0  0  0  0  0  0
   -0.9855   -0.5807    0.0000 C    0  0  0  0  0  0  0  0  0  0  0  0
   -1.4703    0.0868    0.0000 C    0  0  0  0  0  0  0  0  0  0  0  0
  2  3  1  0  0
  3  4  1  0  0
  4  5  1  0  0
  5  6  1  0  0
  6  2  1  0  0
  7  8  1  0  0
  7  9  1  0  0
  9 10  1  0  0
  8 11  2  0  0
 10 12  2  0  0
 11 12  1  0  0
  7 13  1  0  0
 13 14  3  0  0
  7 15  1  0  0
 15 16  1  0  0
 15 17  1  0  0
 15 18  1  0  0
 18 19  2  0  0
 19 20  1  0  0
 20 21  2  0  0
 21 22  1  0  0
 22 23  2  0  0
 23 18  1  0  0
 17 24  2  0  0
 24 25  1  0  0
 25 26  2  0  0
 26 27  1  0  0
 27 28  2  0  0
 28 17  1  0  0
 16 29  2  0  0
 29 30  1  0  0
 30 31  2  0  0
 31 32  1  0  0
 32 33  2  0  0
 33 16  1  0  0
 11 34  1  0  0
 34 35  1  0  0
 34 36  1  0  0
 34 37  1  0  0
 38 39  1  0  0
 39 40  1  0  0
 40 41  1  0  0
 41 42  1  0  0
 42 38  1  0  0
 10 41  1  0  0
 38  1  1  0  0
 39  1  1  0  0
  5  1  1  0  0
  6  1  1  0  0
 40  1  1  0  0
 41  1  1  0  0
 42  1  1  0  0
  4  1  1  0  0
  3  1  1  0  0
  2  1  1  0  0
M  END
> <NMREDATA_VERSION>
1.1

> <NMREDATA_LEVEL>
0

> <NMREDATA_SOLVENT>
CDCl3

> <NMREDATA_TEMPERATURE>
298

> <NMREDATA_FORMULA>
C33H29FeO3PRh

> <NMREDATA_SMILES>
[O]#C[Rh]1([O]=C(C)C=C(O1)C12C3[Fe]4567892(C1C5C34)C1C8C7C6C91)P(c1ccccc1)(c1ccccc1)c1ccccc1

> <NMREDATA_ASSIGNMENT>
Rh7, 279.00, 7

> <NMREDATA_1D_103Rh>
279.00, L=Rh7

$$$$
