RhMan0925_0154.mol
  ChemDraw12172515542D

 86 97  0  0  0  0  0  0  0  0999 V2000
   -4.2236    2.5950    0.0000 Rh   0  0  0  0  0  0  0  0  0  0  0  0
   -3.5091    3.0075    0.0000 H    0  0  0  0  0  0  0  0  0  0  0  0
   -3.3986    2.5950    0.0000 H    0  0  0  0  0  0  0  0  0  0  0  0
   -4.2480    4.1285    0.0000 P    0  0  0  0  0  0  0  0  0  0  0  0
   -1.1207    1.2080    0.0000 P    0  0  0  0  0  0  0  0  0  0  0  0
   -3.4230    4.1285    0.0000 C    0  0  0  0  0  0  0  0  0  0  0  0
   -5.0730    4.1285    0.0000 C    0  0  0  0  0  0  0  0  0  0  0  0
   -4.2611    4.9534    0.0000 C    0  0  0  0  0  0  0  0  0  0  0  0
   -3.5435    5.3604    0.0000 C    0  0  0  0  0  0  0  0  0  0  0  0
   -3.5435    6.1854    0.0000 C    0  0  0  0  0  0  0  0  0  0  0  0
   -4.2611    6.6034    0.0000 C    0  0  0  0  0  0  0  0  0  0  0  0
   -4.9787    6.1854    0.0000 C    0  0  0  0  0  0  0  0  0  0  0  0
   -4.9787    5.3604    0.0000 C    0  0  0  0  0  0  0  0  0  0  0  0
   -3.0105    3.4141    0.0000 C    0  0  0  0  0  0  0  0  0  0  0  0
   -2.1855    3.4141    0.0000 C    0  0  0  0  0  0  0  0  0  0  0  0
   -1.7730    4.1285    0.0000 C    0  0  0  0  0  0  0  0  0  0  0  0
   -2.1855    4.8430    0.0000 C    0  0  0  0  0  0  0  0  0  0  0  0
   -3.0105    4.8430    0.0000 C    0  0  0  0  0  0  0  0  0  0  0  0
   -5.4855    4.8430    0.0000 C    0  0  0  0  0  0  0  0  0  0  0  0
   -6.3105    4.8430    0.0000 C    0  0  0  0  0  0  0  0  0  0  0  0
   -6.7230    4.1285    0.0000 C    0  0  0  0  0  0  0  0  0  0  0  0
   -6.3105    3.4141    0.0000 C    0  0  0  0  0  0  0  0  0  0  0  0
   -5.4855    3.4141    0.0000 C    0  0  0  0  0  0  0  0  0  0  0  0
   -0.2957    1.2080    0.0000 C    0  0  0  0  0  0  0  0  0  0  0  0
   -1.1207    0.3830    0.0000 C    0  0  0  0  0  0  0  0  0  0  0  0
   -1.9457    1.2080    0.0000 C    0  0  0  0  0  0  0  0  0  0  0  0
   -2.3582    1.9225    0.0000 C    0  0  0  0  0  0  0  0  0  0  0  0
   -3.1832    1.9225    0.0000 C    0  0  0  0  0  0  0  0  0  0  0  0
   -3.5957    1.2080    0.0000 C    0  0  0  0  0  0  0  0  0  0  0  0
   -3.1832    0.4936    0.0000 C    0  0  0  0  0  0  0  0  0  0  0  0
   -2.3582    0.4936    0.0000 C    0  0  0  0  0  0  0  0  0  0  0  0
   -1.8351   -0.0295    0.0000 C    0  0  0  0  0  0  0  0  0  0  0  0
   -1.8351   -0.8545    0.0000 C    0  0  0  0  0  0  0  0  0  0  0  0
   -1.1207   -1.2670    0.0000 C    0  0  0  0  0  0  0  0  0  0  0  0
   -0.4062   -0.8545    0.0000 C    0  0  0  0  0  0  0  0  0  0  0  0
   -0.4062   -0.0295    0.0000 C    0  0  0  0  0  0  0  0  0  0  0  0
    0.1168    0.4936    0.0000 C    0  0  0  0  0  0  0  0  0  0  0  0
    0.9418    0.4936    0.0000 C    0  0  0  0  0  0  0  0  0  0  0  0
    1.3543    1.2080    0.0000 C    0  0  0  0  0  0  0  0  0  0  0  0
    0.9418    1.9225    0.0000 C    0  0  0  0  0  0  0  0  0  0  0  0
    0.1168    1.9225    0.0000 C    0  0  0  0  0  0  0  0  0  0  0  0
   -5.3037    3.0075    0.0000 O    0  0  0  0  0  0  0  0  0  0  0  0
   -5.9168    2.4555    0.0000 C    0  0  0  0  0  0  0  0  0  0  0  0
   -5.5813    1.7018    0.0000 C    0  0  0  0  0  0  0  0  0  0  0  0
   -4.7608    1.7880    0.0000 N    0  0  0  0  0  0  0  0  0  0  0  0
   -6.7238    2.6270    0.0000 O    0  0  0  0  0  0  0  0  0  0  0  0
   -5.7528    0.8948    0.0000 C    0  0  0  0  0  0  0  0  0  0  0  0
   -5.0383    0.4823    0.0000 S    0  0  0  0  0  0  0  0  0  0  0  0
   -4.4252    1.0099    0.0000 C    0  0  0  0  0  0  0  0  0  0  0  0
   -4.4252    0.1849    0.0000 C    0  0  0  0  0  0  0  0  0  0  0  0
   -5.1397   -0.2276    0.0000 C    0  0  0  0  0  0  0  0  0  0  0  0
   -5.1397   -1.0526    0.0000 C    0  0  0  0  0  0  0  0  0  0  0  0
   -4.4252   -1.4651    0.0000 N    0  0  0  0  0  0  0  0  0  0  0  0
   -3.7107   -1.0526    0.0000 C    0  0  0  0  0  0  0  0  0  0  0  0
   -3.7107   -0.2276    0.0000 C    0  0  0  0  0  0  0  0  0  0  0  0
   -4.4252   -2.2901    0.0000 W    0  0  0  0  0  0  0  0  0  0  0  0
   -3.7107   -2.7026    0.0000 C    0  0  0  0  0  0  0  0  0  0  0  0
   -5.1397   -2.7026    0.0000 C    0  0  0  0  0  0  0  0  0  0  0  0
   -5.1397   -1.8776    0.0000 C    0  0  0  0  0  0  0  0  0  0  0  0
   -4.4252   -3.1151    0.0000 C    0  0  0  0  0  0  0  0  0  0  0  0
   -5.8542   -1.4651    0.0000 O    0  0  0  0  0  0  0  0  0  0  0  0
   -5.8542   -3.1151    0.0000 O    0  0  0  0  0  0  0  0  0  0  0  0
   -4.4252   -3.9401    0.0000 C    0  0  0  0  0  0  0  0  0  0  0  0
   -2.9963   -3.1151    0.0000 C    0  0  0  0  0  0  0  0  0  0  0  0
    2.8499   -3.5117    0.0000 P    0  0  0  0  0  0  0  0  0  0  0  0
    4.2546   -3.6084    0.0000 C    0  0  0  0  0  0  0  0  0  0  0  0
    3.1384   -4.2846    0.0000 C    0  0  0  0  0  0  0  0  0  0  0  0
    2.5614   -2.7388    0.0000 C    0  0  0  0  0  0  0  0  0  0  0  0
    3.0866   -2.1025    0.0000 C    0  0  0  0  0  0  0  0  0  0  0  0
    2.7981   -1.3296    0.0000 C    0  0  0  0  0  0  0  0  0  0  0  0
    1.9845   -1.1930    0.0000 C    0  0  0  0  0  0  0  0  0  0  0  0
    1.4593   -1.8293    0.0000 C    0  0  0  0  0  0  0  0  0  0  0  0
    1.7478   -2.6022    0.0000 C    0  0  0  0  0  0  0  0  0  0  0  0
    4.6171   -4.3495    0.0000 C    0  0  0  0  0  0  0  0  0  0  0  0
    5.4401   -4.4061    0.0000 C    0  0  0  0  0  0  0  0  0  0  0  0
    5.9007   -3.7217    0.0000 C    0  0  0  0  0  0  0  0  0  0  0  0
    5.5383   -2.9806    0.0000 C    0  0  0  0  0  0  0  0  0  0  0  0
    4.7152   -2.9239    0.0000 C    0  0  0  0  0  0  0  0  0  0  0  0
    2.6133   -4.9209    0.0000 C    0  0  0  0  0  0  0  0  0  0  0  0
    2.9018   -5.6938    0.0000 C    0  0  0  0  0  0  0  0  0  0  0  0
    3.7154   -5.8305    0.0000 C    0  0  0  0  0  0  0  0  0  0  0  0
    4.2405   -5.1942    0.0000 C    0  0  0  0  0  0  0  0  0  0  0  0
    3.9520   -4.4212    0.0000 C    0  0  0  0  0  0  0  0  0  0  0  0
    1.6960   -0.4200    0.0000 C    0  0  0  0  0  0  0  0  0  0  0  0
    6.7238   -3.7783    0.0000 C    0  0  0  0  0  0  0  0  0  0  0  0
    4.0039   -6.6034    0.0000 C    0  0  0  0  0  0  0  0  0  0  0  0
  1  2  1  0  0
  1  3  1  0  0
  1  4  1  0  0
  1  5  1  0  0
  4  6  1  0  0
  4  7  1  0  0
  4  8  1  0  0
  8  9  2  0  0
  9 10  1  0  0
 10 11  2  0  0
 11 12  1  0  0
 12 13  2  0  0
 13  8  1  0  0
  6 14  2  0  0
 14 15  1  0  0
 15 16  2  0  0
 16 17  1  0  0
 17 18  2  0  0
 18  6  1  0  0
  7 19  2  0  0
 19 20  1  0  0
 20 21  2  0  0
 21 22  1  0  0
 22 23  2  0  0
 23  7  1  0  0
  5 24  1  0  0
  5 25  1  0  0
  5 26  1  0  0
 26 27  2  0  0
 27 28  1  0  0
 28 29  2  0  0
 29 30  1  0  0
 30 31  2  0  0
 31 26  1  0  0
 25 32  2  0  0
 32 33  1  0  0
 33 34  2  0  0
 34 35  1  0  0
 35 36  2  0  0
 36 25  1  0  0
 24 37  2  0  0
 37 38  1  0  0
 38 39  2  0  0
 39 40  1  0  0
 40 41  2  0  0
 41 24  1  0  0
  1 42  1  0  0
 42 43  1  0  0
 43 44  1  0  0
 44 45  1  0  0
 45  1  1  0  0
 43 46  2  0  0
 44 47  2  0  0
 47 48  1  0  0
 48 49  1  0  0
 49 45  2  0  0
 49 50  1  0  0
 50 51  2  0  0
 51 52  1  0  0
 52 53  2  0  0
 53 54  1  0  0
 54 55  2  0  0
 55 50  1  0  0
 53 56  1  0  0
 56 57  1  0  0
 56 58  1  0  0
 56 59  1  0  0
 56 60  1  0  0
 59 61  3  0  0
 58 62  3  0  0
 60 63  3  0  0
 57 64  3  0  0
 56 65  1  0  0
 65 66  1  0  0
 65 67  1  0  0
 65 68  1  0  0
 68 69  2  0  0
 69 70  1  0  0
 70 71  2  0  0
 71 72  1  0  0
 72 73  2  0  0
 73 68  1  0  0
 66 74  2  0  0
 74 75  1  0  0
 75 76  2  0  0
 76 77  1  0  0
 77 78  2  0  0
 78 66  1  0  0
 67 79  2  0  0
 79 80  1  0  0
 80 81  2  0  0
 81 82  1  0  0
 82 83  2  0  0
 83 67  1  0  0
 71 84  1  0  0
 76 85  1  0  0
 81 86  1  0  0
M  END
> <NMREDATA_VERSION>
1.1

> <NMREDATA_LEVEL>
0

> <NMREDATA_SOLVENT>
CD3OD/THF

> <NMREDATA_TEMPERATURE>
300

> <NMREDATA_FORMULA>
C72H65N2O4P3RhSW

> <NMREDATA_SMILES>
C#C[W](P(c1ccc(cc1)C)(c1ccc(cc1)C)c1ccc(cc1)C)(N1=CC=C(C=C1)C1=N2C(=CS1)C(=O)O[RhH2]2(P(c1ccccc1)(c1ccccc1)c1ccccc1)P(c1ccccc1)(c1ccccc1)c1ccccc1)(C#[O])(C#[O])C#C

> <NMREDATA_ASSIGNMENT>
Rh1, 510.00, 1

> <NMREDATA_1D_103Rh>
510.00, L=Rh1

$$$$
