
  ACD/LABS12142511242D

104112  0  0  0  0  0  0  0  0  2 V2000
   29.0750  -11.3247    0.0000 S    0  0  0  0  0  0  0  0  0  0  0  0
   30.2268  -10.6597    0.0000 N    0  5  0  0  0  0  0  0  0  0  0  0
   31.3787  -11.3247    0.0000 S    0  0  0  0  0  0  0  0  0  0  0  0
   32.5305  -10.6597    0.0000 O    0  0  0  0  0  0  0  0  0  0  0  0
   27.9232  -10.6597    0.0000 O    0  0  0  0  0  0  0  0  0  0  0  0
   29.0750  -12.6547    0.0000 O    0  0  0  0  0  0  0  0  0  0  0  0
   31.3787  -12.6547    0.0000 O    0  0  0  0  0  0  0  0  0  0  0  0
   32.5305  -11.9897    0.0000 C    0  0  0  0  0  0  0  0  0  0  0  0
   27.9232  -11.9897    0.0000 C    0  0  0  0  0  0  0  0  0  0  0  0
   33.6823  -11.3247    0.0000 F    0  0  0  0  0  0  0  0  0  0  0  0
   32.5305  -13.3197    0.0000 F    0  0  0  0  0  0  0  0  0  0  0  0
   33.6823  -12.6547    0.0000 F    0  0  0  0  0  0  0  0  0  0  0  0
   26.7714  -11.3247    0.0000 F    0  0  0  0  0  0  0  0  0  0  0  0
   27.9232  -13.3197    0.0000 F    0  0  0  0  0  0  0  0  0  0  0  0
   26.7714  -12.6547    0.0000 F    0  0  0  0  0  0  0  0  0  0  0  0
   16.7725  -11.4355    0.0000 Rh   0  0  0  0  0  0  0  0  0  0  0  0
   15.6207  -12.1005    0.0000 P    0  0  0  0  0  5  0  0  0  0  0  0
   15.6207  -10.7705    0.0000 P    0  0  0  0  0  5  0  0  0  0  0  0
   17.9243  -12.1005    0.0000 P    0  0  0  0  0  5  0  0  0  0  0  0
   17.9243  -10.7705    0.0000 P    0  0  0  0  0  5  0  0  0  0  0  0
   11.8524   -7.9997    0.0000 C    0  0  0  0  0  0  0  0  0  0  0  0
   11.8524   -9.3297    0.0000 C    0  0  0  0  0  0  0  0  0  0  0  0
   13.0042   -9.9947    0.0000 C    0  3  0  0  0  0  0  0  0  0  0  0
   14.1560   -9.3297    0.0000 C    0  0  0  0  0  0  0  0  0  0  0  0
   14.1560   -7.9997    0.0000 C    0  0  0  0  0  0  0  0  0  0  0  0
   13.0042   -7.3347    0.0000 C    0  0  0  0  0  0  0  0  0  0  0  0
   14.9003   -6.7251    0.0000 C    0  0  0  0  0  0  0  0  0  0  0  0
   14.9003   -8.0551    0.0000 C    0  0  0  0  0  0  0  0  0  0  0  0
   16.0521   -8.7201    0.0000 C    0  0  0  0  0  0  0  0  0  0  0  0
   17.2039   -8.0551    0.0000 C    0  0  0  0  0  0  0  0  0  0  0  0
   17.2039   -6.7251    0.0000 C    0  0  0  0  0  0  0  0  0  0  0  0
   16.0521   -6.0601    0.0000 C    0  0  0  0  0  0  0  0  0  0  0  0
   18.1699   -7.3901    0.0000 C    0  0  0  0  0  0  0  0  0  0  0  0
   18.1699   -8.7201    0.0000 C    0  0  0  0  0  0  0  0  0  0  0  0
   19.3217   -9.3851    0.0000 C    0  0  0  0  0  0  0  0  0  0  0  0
   20.4735   -8.7201    0.0000 C    0  0  0  0  0  0  0  0  0  0  0  0
   20.4735   -7.3901    0.0000 C    0  0  0  0  0  0  0  0  0  0  0  0
   19.3217   -6.7251    0.0000 C    0  0  0  0  0  0  0  0  0  0  0  0
   20.3865   -9.1080    0.0000 C    0  0  0  0  0  0  0  0  0  0  0  0
   20.3865  -10.4380    0.0000 C    0  0  0  0  0  0  0  0  0  0  0  0
   21.5384  -11.1030    0.0000 C    0  0  0  0  0  0  0  0  0  0  0  0
   22.6902  -10.4380    0.0000 C    0  0  0  0  0  0  0  0  0  0  0  0
   22.6902   -9.1080    0.0000 C    0  0  0  0  0  0  0  0  0  0  0  0
   21.5384   -8.4430    0.0000 C    0  0  0  0  0  0  0  0  0  0  0  0
   18.3361  -13.7630    0.0000 C    0  0  0  0  0  0  0  0  0  0  0  0
   18.3361  -15.0930    0.0000 C    0  0  0  0  0  0  0  0  0  0  0  0
   19.4879  -15.7580    0.0000 C    0  0  0  0  0  0  0  0  0  0  0  0
   20.6398  -15.0930    0.0000 C    0  0  0  0  0  0  0  0  0  0  0  0
   20.6398  -13.7630    0.0000 C    0  0  0  0  0  0  0  0  0  0  0  0
   19.4879  -13.0980    0.0000 C    0  0  0  0  0  0  0  0  0  0  0  0
   15.6207  -14.5389    0.0000 C    0  0  0  0  0  0  0  0  0  0  0  0
   15.6207  -15.8689    0.0000 C    0  0  0  0  0  0  0  0  0  0  0  0
   16.7725  -16.5339    0.0000 C    0  0  0  0  0  0  0  0  0  0  0  0
   17.9243  -15.8689    0.0000 C    0  0  0  0  0  0  0  0  0  0  0  0
   17.9243  -14.5389    0.0000 C    0  0  0  0  0  0  0  0  0  0  0  0
   16.7725  -13.8739    0.0000 C    0  0  0  0  0  0  0  0  0  0  0  0
   12.1849  -14.5389    0.0000 C    0  0  0  0  0  0  0  0  0  0  0  0
   12.1849  -15.8689    0.0000 C    0  0  0  0  0  0  0  0  0  0  0  0
   13.3367  -16.5339    0.0000 C    0  0  0  0  0  0  0  0  0  0  0  0
   14.4885  -15.8689    0.0000 C    0  0  0  0  0  0  0  0  0  0  0  0
   14.4885  -14.5389    0.0000 C    0  0  0  0  0  0  0  0  0  0  0  0
   13.3367  -13.8739    0.0000 C    0  0  0  0  0  0  0  0  0  0  0  0
    8.3611  -13.3197    0.0000 C    0  0  0  0  0  0  0  0  0  0  0  0
    8.3611  -14.6497    0.0000 C    0  0  0  0  0  0  0  0  0  0  0  0
    9.5129  -15.3147    0.0000 C    0  0  0  0  0  0  0  0  0  0  0  0
   10.6647  -14.6497    0.0000 C    0  0  0  0  0  0  0  0  0  0  0  0
   10.6647  -13.3197    0.0000 C    0  0  0  0  0  0  0  0  0  0  0  0
    9.5129  -12.6547    0.0000 C    0  0  0  0  0  0  0  0  0  0  0  0
   19.2543  -12.1005    0.0000 C    0  0  0  0  0  0  0  0  0  0  0  0
   19.2090  -11.1148    0.0000 C    0  0  0  0  0  0  0  0  0  0  0  0
   14.2907  -12.1005    0.0000 C    0  0  0  0  0  0  0  0  0  0  0  0
   13.6138  -10.6597    0.0000 C    0  0  0  0  0  0  0  0  0  0  0  0
   10.7006   -7.3347    0.0000 C    0  0  0  0  0  0  0  0  0  0  0  0
   16.0521   -4.7301    0.0000 C    0  0  0  0  0  0  0  0  0  0  0  0
   19.3217   -5.3951    0.0000 C    0  0  0  0  0  0  0  0  0  0  0  0
   23.8420   -8.4430    0.0000 C    0  0  0  0  0  0  0  0  0  0  0  0
   19.4879  -17.0880    0.0000 C    0  0  0  0  0  0  0  0  0  0  0  0
   16.7725  -17.8639    0.0000 C    0  0  0  0  0  0  0  0  0  0  0  0
   13.3367  -17.8639    0.0000 C    0  0  0  0  0  0  0  0  0  0  0  0
    7.2093  -15.3147    0.0000 C    0  0  0  0  0  0  0  0  0  0  0  0
    6.0575  -14.6497    0.0000 F    0  0  0  0  0  0  0  0  0  0  0  0
    7.2093  -16.6447    0.0000 F    0  0  0  0  0  0  0  0  0  0  0  0
    7.2093  -13.9847    0.0000 F    0  0  0  0  0  0  0  0  0  0  0  0
   14.4885  -18.5289    0.0000 F    0  0  0  0  0  0  0  0  0  0  0  0
   12.1849  -18.5289    0.0000 F    0  0  0  0  0  0  0  0  0  0  0  0
   13.3367  -19.1939    0.0000 F    0  0  0  0  0  0  0  0  0  0  0  0
   17.9243  -18.5289    0.0000 F    0  0  0  0  0  0  0  0  0  0  0  0
   15.6207  -18.5289    0.0000 F    0  0  0  0  0  0  0  0  0  0  0  0
   16.7725  -19.1939    0.0000 F    0  0  0  0  0  0  0  0  0  0  0  0
   20.6398  -17.7530    0.0000 F    0  0  0  0  0  0  0  0  0  0  0  0
   18.3361  -17.7530    0.0000 F    0  0  0  0  0  0  0  0  0  0  0  0
   20.6398  -16.4230    0.0000 F    0  0  0  0  0  0  0  0  0  0  0  0
   24.9938   -9.1080    0.0000 F    0  0  0  0  0  0  0  0  0  0  0  0
   23.8420   -7.1130    0.0000 F    0  0  0  0  0  0  0  0  0  0  0  0
   24.9938   -7.7780    0.0000 F    0  0  0  0  0  0  0  0  0  0  0  0
   18.1699   -4.7301    0.0000 F    0  0  0  0  0  0  0  0  0  0  0  0
   20.4735   -4.7301    0.0000 F    0  0  0  0  0  0  0  0  0  0  0  0
   19.3217   -4.0651    0.0000 F    0  0  0  0  0  0  0  0  0  0  0  0
   14.9003   -4.0651    0.0000 F    0  0  0  0  0  0  0  0  0  0  0  0
   17.2039   -4.0651    0.0000 F    0  0  0  0  0  0  0  0  0  0  0  0
   16.0521   -3.4001    0.0000 F    0  0  0  0  0  0  0  0  0  0  0  0
    9.5487   -7.9997    0.0000 F    0  0  0  0  0  0  0  0  0  0  0  0
   10.7006   -6.0047    0.0000 F    0  0  0  0  0  0  0  0  0  0  0  0
   11.8524   -6.6697    0.0000 F    0  0  0  0  0  0  0  0  0  0  0  0
  1  2  1  0  0  0  0
  2  3  1  0  0  0  0
  3  4  2  0  0  0  0
  1  5  2  0  0  0  0
  1  6  2  0  0  0  0
  3  7  2  0  0  0  0
  3  8  1  0  0  0  0
  1  9  1  0  0  0  0
  8 10  1  0  0  0  0
  8 11  1  0  0  0  0
  8 12  1  0  0  0  0
  9 13  1  0  0  0  0
  9 14  1  0  0  0  0
  9 15  1  0  0  0  0
 16 17  1  0  0  0  0
 16 18  1  0  0  0  0
 16 19  1  0  0  0  0
 16 20  1  0  0  0  0
 21 22  2  0  0  0  0
 22 23  1  0  0  0  0
 23 24  2  0  0  0  0
 24 25  1  0  0  0  0
 25 26  2  0  0  0  0
 26 21  1  0  0  0  0
 27 28  2  0  0  0  0
 28 29  1  0  0  0  0
 29 30  2  0  0  0  0
 30 31  1  0  0  0  0
 31 32  2  0  0  0  0
 32 27  1  0  0  0  0
 33 34  2  0  0  0  0
 34 35  1  0  0  0  0
 35 36  2  0  0  0  0
 36 37  1  0  0  0  0
 37 38  2  0  0  0  0
 38 33  1  0  0  0  0
 39 40  2  0  0  0  0
 40 41  1  0  0  0  0
 41 42  2  0  0  0  0
 42 43  1  0  0  0  0
 43 44  2  0  0  0  0
 44 39  1  0  0  0  0
 45 46  2  0  0  0  0
 46 47  1  0  0  0  0
 47 48  2  0  0  0  0
 48 49  1  0  0  0  0
 49 50  2  0  0  0  0
 50 45  1  0  0  0  0
 51 52  2  0  0  0  0
 52 53  1  0  0  0  0
 53 54  2  0  0  0  0
 54 55  1  0  0  0  0
 55 56  2  0  0  0  0
 56 51  1  0  0  0  0
 57 58  2  0  0  0  0
 58 59  1  0  0  0  0
 59 60  2  0  0  0  0
 60 61  1  0  0  0  0
 61 62  2  0  0  0  0
 62 57  1  0  0  0  0
 63 64  2  0  0  0  0
 64 65  1  0  0  0  0
 65 66  2  0  0  0  0
 66 67  1  0  0  0  0
 67 68  2  0  0  0  0
 68 63  1  0  0  0  0
 67 17  1  0  0  0  0
 62 17  1  0  0  0  0
 56 19  1  0  0  0  0
 50 19  1  0  0  0  0
 35 20  1  0  0  0  0
 40 20  1  0  0  0  0
 29 18  1  0  0  0  0
 24 18  1  0  0  0  0
 19 69  1  0  0  0  0
 70 20  1  0  0  0  0
 17 71  1  0  0  0  0
 18 72  1  0  0  0  0
 71 72  1  0  0  0  0
 69 70  1  0  0  0  0
 21 73  1  0  0  0  0
 32 74  1  0  0  0  0
 38 75  1  0  0  0  0
 43 76  1  0  0  0  0
 47 77  1  0  0  0  0
 53 78  1  0  0  0  0
 59 79  1  0  0  0  0
 64 80  1  0  0  0  0
 80 81  1  0  0  0  0
 80 82  1  0  0  0  0
 80 83  1  0  0  0  0
 79 84  1  0  0  0  0
 79 85  1  0  0  0  0
 79 86  1  0  0  0  0
 78 87  1  0  0  0  0
 78 88  1  0  0  0  0
 78 89  1  0  0  0  0
 77 90  1  0  0  0  0
 77 91  1  0  0  0  0
 77 92  1  0  0  0  0
 76 93  1  0  0  0  0
 76 94  1  0  0  0  0
 76 95  1  0  0  0  0
 75 96  1  0  0  0  0
 75 97  1  0  0  0  0
 75 98  1  0  0  0  0
 74 99  1  0  0  0  0
 74100  1  0  0  0  0
 74101  1  0  0  0  0
 73102  1  0  0  0  0
 73103  1  0  0  0  0
 73104  1  0  0  0  0
M  END
> <NMREDATA_VERSION>
1.1

> <NMREDATA_LEVEL>
0

> <NMREDATA_SOLVENT>
THF-d8

> <NMREDATA_TEMPERATURE>
298

> <NMREDATA_FORMULA>
C62H45F30NO4P4RhS2

> <NMREDATA_SMILES>
FC(S(=O)(=O)NS(=O)(=O)C(F)(F)F)(F)F.FC(c1ccc(cc1)P1(CCP([Rh]21P(CCP2(c1ccc(cc1)C(F)(F)F)c1ccc(cc1)C(F)(F)F)(c1ccc(cc1)C(F)(F)F)c1ccc(cc1)C(F)(F)F)(c1ccc(cc1)C(F)(F)F)c1ccc(cc1)C(F)(F)F)c1ccc(cc1)C(F)(F)F)(F)F

> <NMREDATA_ASSIGNMENT>
Rh16, -1064.00, 16

> <NMREDATA_1D_103Rh>
-1064.00, L=Rh16

$$$$
