RhMan0925_0163.mol
  ChemDraw12172516502D

 31 40  0  0  0  0  0  0  0  0999 V2000
   -0.2463   -0.8501    0.0000 Rh   0  3  0  0  0  0  0  0  0  0  0  0
   -0.9029    0.2708    0.0000 P    0  0  0  0  0  0  0  0  0  0  0  0
    0.2638    0.2708    0.0000 P    0  0  0  0  0  0  0  0  0  0  0  0
   -0.9029    1.0958    0.0000 C    0  0  0  0  0  0  0  0  0  0  0  0
    0.2638    1.0958    0.0000 C    0  0  0  0  0  0  0  0  0  0  0  0
   -0.9363   -1.8791    0.0000 C    0  0  0  0  0  0  0  0  0  0  0  0
   -0.9363   -2.7041    0.0000 C    0  0  0  0  0  0  0  0  0  0  0  0
   -0.2218   -3.1166    0.0000 C    0  0  0  0  0  0  0  0  0  0  0  0
    0.4926   -2.7041    0.0000 C    0  0  0  0  0  0  0  0  0  0  0  0
    0.4926   -1.8791    0.0000 C    0  0  0  0  0  0  0  0  0  0  0  0
   -0.2218   -1.4666    0.0000 C    0  0  0  0  0  0  0  0  0  0  0  0
    0.8472    2.1062    0.0000 C    0  0  0  0  0  0  0  0  0  0  0  0
    0.2638    3.1166    0.0000 C    0  0  0  0  0  0  0  0  0  0  0  0
   -0.9029    3.1166    0.0000 C    0  0  0  0  0  0  0  0  0  0  0  0
   -1.4863    2.1062    0.0000 C    0  0  0  0  0  0  0  0  0  0  0  0
   -1.5109    0.8284    0.0000 C    0  0  0  0  0  0  0  0  0  0  0  0
   -2.2292    0.4225    0.0000 C    0  0  0  0  0  0  0  0  0  0  0  0
   -2.0650   -0.3860    0.0000 C    0  0  0  0  0  0  0  0  0  0  0  0
   -1.2454   -0.6508    0.0000 C    0  0  0  0  0  0  0  0  0  0  0  0
    0.6361   -0.4654    0.0000 C    0  0  0  0  0  0  0  0  0  0  0  0
    1.4514   -0.3388    0.0000 C    0  0  0  0  0  0  0  0  0  0  0  0
    1.5829    0.4757    0.0000 C    0  0  0  0  0  0  0  0  0  0  0  0
    0.8489    0.8524    0.0000 C    0  0  0  0  0  0  0  0  0  0  0  0
    1.4323    1.4358    0.0000 C    0  0  0  0  0  0  0  0  0  0  0  0
    1.2195   -1.0488    0.0000 C    0  0  0  0  0  0  0  0  0  0  0  0
   -2.0943    1.4118    0.0000 C    0  0  0  0  0  0  0  0  0  0  0  0
   -1.8288   -1.2342    0.0000 C    0  0  0  0  0  0  0  0  0  0  0  0
   -1.8808    2.2087    0.0000 C    0  0  0  0  0  0  0  0  0  0  0  0
   -1.6152   -2.0311    0.0000 C    0  0  0  0  0  0  0  0  0  0  0  0
    1.0060   -1.8457    0.0000 C    0  0  0  0  0  0  0  0  0  0  0  0
    2.2292    1.2222    0.0000 C    0  0  0  0  0  0  0  0  0  0  0  0
  1  2  1  0  0
  1  3  1  0  0
  2  4  1  0  0
  3  5  1  0  0
  5  4  2  0  0
  6  7  1  0  0
  7  8  1  0  0
  8  9  1  0  0
  9 10  1  0  0
 10 11  1  0  0
 11  6  1  0  0
 11  1  1  0  0
  6  1  1  0  0
  7  1  1  0  0
  8  1  1  0  0
  9  1  1  0  0
 10  1  1  0  0
  5 12  1  0  0
 12 13  2  0  0
 13 14  1  0  0
 14 15  2  0  0
 15  4  1  0  0
  2 16  1  0  0
 16 17  1  0  0
 17 18  1  0  0
 18 19  1  0  0
 19  2  1  0  0
  3 20  1  0  0
 20 21  1  0  0
 21 22  1  0  0
 22 23  1  0  0
 23  3  1  0  0
 23 24  1  0  0
 20 25  1  0  0
 16 26  1  0  0
 19 27  1  0  0
 26 28  1  0  0
 27 29  1  0  0
 25 30  1  0  0
 24 31  1  0  0
M  END
> <NMREDATA_VERSION>
1.1

> <NMREDATA_LEVEL>
0

> <NMREDATA_SOLVENT>
CD3OD

> <NMREDATA_TEMPERATURE>
298

> <NMREDATA_FORMULA>
C28H44P2Rh

> <NMREDATA_SMILES>
CCC1CCC(P21c1ccccc1P1([Rh]345672C2C6C4C5C3C72)C(CC)CCC1CC)CC

> <NMREDATA_ASSIGNMENT>
Rh1, -1116.00, 1

> <NMREDATA_1D_103Rh>
-1116.00, L=Rh1

$$$$
