RhMan0925_0092.mol
  ChemDraw01122615512D

 49 72  0  0  0  0  0  0  0  0999 V2000
    1.4589    0.3965    0.0000 Rh   0  0  0  0  0  0  0  0  0  0  0  0
    0.5633    0.8090    0.0000 O    0  0  0  0  0  0  0  0  0  0  0  0
    0.6945   -0.1869    0.0000 O    0  0  0  0  0  0  0  0  0  0  0  0
   -0.1305   -0.1869    0.0000 C    0  0  0  0  0  0  0  0  0  0  0  0
   -0.2617    0.8090    0.0000 C    0  0  0  0  0  0  0  0  0  0  0  0
   -0.8450    0.2256    0.0000 C    0  0  0  0  0  0  0  0  0  0  0  0
    1.9744    1.4100    0.0000 C    0  0  0  0  0  0  0  0  0  0  0  0
    2.3869    2.1244    0.0000 O    0  0  0  0  0  0  0  0  0  0  0  0
    2.2287   -0.6224    0.0000 P    0  0  0  0  0  5  0  0  0  0  0  0
    1.3986   -1.3460    0.0000 C    0  0  0  0  0  0  0  0  0  0  0  0
    3.2014   -0.8564    0.0000 C    0  0  0  0  0  0  0  0  0  0  0  0
    2.4672   -1.7665    0.0000 C    0  0  0  0  0  0  0  0  0  0  0  0
    2.2652   -2.5663    0.0000 C    0  0  0  0  0  0  0  0  0  0  0  0
    2.8571   -3.1412    0.0000 C    0  0  0  0  0  0  0  0  0  0  0  0
    3.6508   -2.9161    0.0000 C    0  0  0  0  0  0  0  0  0  0  0  0
    3.8527   -2.1162    0.0000 C    0  0  0  0  0  0  0  0  0  0  0  0
    3.2609   -1.5414    0.0000 C    0  0  0  0  0  0  0  0  0  0  0  0
    3.7146   -1.5023    0.0000 C    0  0  0  0  0  0  0  0  0  0  0  0
    4.5307   -1.3808    0.0000 C    0  0  0  0  0  0  0  0  0  0  0  0
    4.8334   -0.6133    0.0000 C    0  0  0  0  0  0  0  0  0  0  0  0
    4.3202    0.0326    0.0000 C    0  0  0  0  0  0  0  0  0  0  0  0
    3.5042   -0.0889    0.0000 C    0  0  0  0  0  0  0  0  0  0  0  0
    0.6019   -1.5600    0.0000 C    0  0  0  0  0  0  0  0  0  0  0  0
    0.3888   -2.3570    0.0000 C    0  0  0  0  0  0  0  0  0  0  0  0
    0.9724   -2.9401    0.0000 C    0  0  0  0  0  0  0  0  0  0  0  0
    1.7692   -2.7261    0.0000 C    0  0  0  0  0  0  0  0  0  0  0  0
    1.9823   -1.9291    0.0000 C    0  0  0  0  0  0  0  0  0  0  0  0
   -2.8805   -1.6085    0.0000 Fe   0  0  0  0  0  0  0  0  0  0  0  0
   -4.8334   -2.0142    0.0000 C    0  0  0  0  0  0  0  0  0  0  0  0
   -4.8334   -2.8391    0.0000 C    0  0  0  0  0  0  0  0  0  0  0  0
   -4.0488   -3.0941    0.0000 C    0  0  0  0  0  0  0  0  0  0  0  0
   -3.5638   -2.4266    0.0000 C    0  0  0  0  0  0  0  0  0  0  0  0
   -4.0488   -1.7593    0.0000 C    0  0  0  0  0  0  0  0  0  0  0  0
   -2.0053   -1.2603    0.0000 C    0  0  0  0  0  0  0  0  0  0  0  0
   -2.0053   -2.0853    0.0000 C    0  0  0  0  0  0  0  0  0  0  0  0
   -1.2206   -2.3402    0.0000 C    0  0  0  0  0  0  0  0  0  0  0  0
   -0.7358   -1.6728    0.0000 C    0  0  0  0  0  0  0  0  0  0  0  0
   -1.2206   -1.0053    0.0000 C    0  0  0  0  0  0  0  0  0  0  0  0
   -2.1070    2.5380    0.0000 Fe   0  0  0  0  0  0  0  0  0  0  0  0
   -4.0599    2.1323    0.0000 C    0  0  0  0  0  0  0  0  0  0  0  0
   -4.0599    1.3074    0.0000 C    0  0  0  0  0  0  0  0  0  0  0  0
   -3.2754    1.0524    0.0000 C    0  0  0  0  0  0  0  0  0  0  0  0
   -2.7904    1.7198    0.0000 C    0  0  0  0  0  0  0  0  0  0  0  0
   -3.2754    2.3872    0.0000 C    0  0  0  0  0  0  0  0  0  0  0  0
   -1.2319    2.8862    0.0000 C    0  0  0  0  0  0  0  0  0  0  0  0
   -1.2319    2.0612    0.0000 C    0  0  0  0  0  0  0  0  0  0  0  0
   -0.4472    1.8063    0.0000 C    0  0  0  0  0  0  0  0  0  0  0  0
    0.0376    2.4737    0.0000 C    0  0  0  0  0  0  0  0  0  0  0  0
   -0.4472    3.1412    0.0000 C    0  0  0  0  0  0  0  0  0  0  0  0
  1  2  1  0  0
  1  3  1  0  0
  3  4  2  0  0
  2  5  1  0  0
  4  6  1  0  0
  5  6  2  0  0
  1  7  1  0  0
  7  8  3  0  0
  1  9  1  0  0
  9 10  1  0  0
  9 11  1  0  0
  9 12  1  0  0
 12 13  2  0  0
 13 14  1  0  0
 14 15  2  0  0
 15 16  1  0  0
 16 17  2  0  0
 17 12  1  0  0
 11 18  2  0  0
 18 19  1  0  0
 19 20  2  0  0
 20 21  1  0  0
 21 22  2  0  0
 22 11  1  0  0
 10 23  2  0  0
 23 24  1  0  0
 24 25  2  0  0
 25 26  1  0  0
 26 27  2  0  0
 27 10  1  0  0
 29 30  1  0  0
 30 31  1  0  0
 31 32  1  0  0
 32 33  1  0  0
 33 29  1  0  0
 34 35  1  0  0
 35 36  1  0  0
 36 37  1  0  0
 37 38  1  0  0
 38 34  1  0  0
 34 28  1  0  0
 35 28  1  0  0
 32 28  1  0  0
 33 28  1  0  0
 36 28  1  0  0
 37 28  1  0  0
 38 28  1  0  0
 31 28  1  0  0
 30 28  1  0  0
 29 28  1  0  0
  4 38  1  0  0
 40 41  1  0  0
 41 42  1  0  0
 42 43  1  0  0
 43 44  1  0  0
 44 40  1  0  0
 45 46  1  0  0
 46 47  1  0  0
 47 48  1  0  0
 48 49  1  0  0
 49 45  1  0  0
 45 39  1  0  0
 46 39  1  0  0
 43 39  1  0  0
 44 39  1  0  0
 47 39  1  0  0
 48 39  1  0  0
 49 39  1  0  0
 42 39  1  0  0
 41 39  1  0  0
 40 39  1  0  0
 47  5  1  0  0
M  END
> <NMREDATA_VERSION>
1.1

> <NMREDATA_LEVEL>
0

> <NMREDATA_SOLVENT>
CDCl3

> <NMREDATA_TEMPERATURE>
298

> <NMREDATA_FORMULA>
C42H35Fe2O3PRh

> <NMREDATA_SMILES>
[O]#C[Rh]1(OC(=CC(=[O]1)C12C3[Fe]4567892(C1C5C34)C1C8C7C6C91)C12C3[Fe]4567892(C1C5C34)C1C8C7C6C91)P(c1ccccc1)(c1ccccc1)c1ccccc1

> <NMREDATA_ASSIGNMENT>
Rh1, 311.00, 1

> <NMREDATA_1D_103Rh>
311.00, L=Rh1

$$$$
