RhMan0925_0160.mol
  ChemDraw12172516452D

 35 45  0  0  0  0  0  0  0  0999 V2000
    0.0486   -0.6401    0.0000 Rh   0  0  0  0  0  0  0  0  0  0  0  0
   -0.6081    0.4808    0.0000 P    0  0  0  0  0  0  0  0  0  0  0  0
    0.5587    0.4808    0.0000 P    0  0  0  0  0  0  0  0  0  0  0  0
   -0.6081    1.3058    0.0000 C    0  0  0  0  0  0  0  0  0  0  0  0
    0.5587    1.3058    0.0000 C    0  0  0  0  0  0  0  0  0  0  0  0
    1.3209    0.1651    0.0000 C    0  0  0  0  0  0  0  0  0  0  0  0
    1.7263    1.5450    0.0000 C    0  0  0  0  0  0  0  0  0  0  0  0
   -1.5902    0.8736    0.0000 C    0  0  0  0  0  0  0  0  0  0  0  0
   -1.4732   -0.3127    0.0000 C    0  0  0  0  0  0  0  0  0  0  0  0
   -1.7078    1.6902    0.0000 C    0  0  0  0  0  0  0  0  0  0  0  0
   -2.4738    1.9966    0.0000 C    0  0  0  0  0  0  0  0  0  0  0  0
   -3.1222    1.4864    0.0000 C    0  0  0  0  0  0  0  0  0  0  0  0
   -3.0045    0.6698    0.0000 C    0  0  0  0  0  0  0  0  0  0  0  0
   -2.2385    0.3634    0.0000 C    0  0  0  0  0  0  0  0  0  0  0  0
   -2.2601   -0.0650    0.0000 C    0  0  0  0  0  0  0  0  0  0  0  0
   -2.8681   -0.6227    0.0000 C    0  0  0  0  0  0  0  0  0  0  0  0
   -2.6891   -1.4281    0.0000 C    0  0  0  0  0  0  0  0  0  0  0  0
   -1.9022   -1.6758    0.0000 C    0  0  0  0  0  0  0  0  0  0  0  0
   -1.2942   -1.1181    0.0000 C    0  0  0  0  0  0  0  0  0  0  0  0
    1.4285   -0.6529    0.0000 C    0  0  0  0  0  0  0  0  0  0  0  0
    2.1907   -0.9686    0.0000 C    0  0  0  0  0  0  0  0  0  0  0  0
    2.8453   -0.4664    0.0000 C    0  0  0  0  0  0  0  0  0  0  0  0
    2.7376    0.3516    0.0000 C    0  0  0  0  0  0  0  0  0  0  0  0
    1.9754    0.6673    0.0000 C    0  0  0  0  0  0  0  0  0  0  0  0
    2.5124    1.2948    0.0000 C    0  0  0  0  0  0  0  0  0  0  0  0
    3.1222    1.8505    0.0000 C    0  0  0  0  0  0  0  0  0  0  0  0
    2.9457    2.6564    0.0000 C    0  0  0  0  0  0  0  0  0  0  0  0
    2.1596    2.9066    0.0000 C    0  0  0  0  0  0  0  0  0  0  0  0
    1.5499    2.3509    0.0000 C    0  0  0  0  0  0  0  0  0  0  0  0
   -0.6414   -1.6691    0.0000 C    0  0  0  0  0  0  0  0  0  0  0  0
   -0.6414   -2.4941    0.0000 C    0  0  0  0  0  0  0  0  0  0  0  0
    0.0730   -2.9066    0.0000 C    0  0  0  0  0  0  0  0  0  0  0  0
    0.7875   -2.4941    0.0000 C    0  0  0  0  0  0  0  0  0  0  0  0
    0.7875   -1.6691    0.0000 C    0  0  0  0  0  0  0  0  0  0  0  0
    0.0730   -1.2566    0.0000 C    0  0  0  0  0  0  0  0  0  0  0  0
  1  2  1  0  0
  1  3  1  0  0
  2  4  1  0  0
  3  5  1  0  0
  5  4  1  0  0
  3  6  1  0  0
  3  7  1  0  0
  2  8  1  0  0
  2  9  1  0  0
  8 10  2  0  0
 10 11  1  0  0
 11 12  2  0  0
 12 13  1  0  0
 13 14  2  0  0
 14  8  1  0  0
  9 15  2  0  0
 15 16  1  0  0
 16 17  2  0  0
 17 18  1  0  0
 18 19  2  0  0
 19  9  1  0  0
  6 20  2  0  0
 20 21  1  0  0
 21 22  2  0  0
 22 23  1  0  0
 23 24  2  0  0
 24  6  1  0  0
  7 25  2  0  0
 25 26  1  0  0
 26 27  2  0  0
 27 28  1  0  0
 28 29  2  0  0
 29  7  1  0  0
 30 31  1  0  0
 31 32  1  0  0
 32 33  1  0  0
 33 34  1  0  0
 34 35  1  0  0
 35 30  1  0  0
 35  1  1  0  0
 30  1  1  0  0
 31  1  1  0  0
 32  1  1  0  0
 33  1  1  0  0
 34  1  1  0  0
M  END
> <NMREDATA_VERSION>
1.1

> <NMREDATA_LEVEL>
0

> <NMREDATA_SOLVENT>
CD2Cl2

> <NMREDATA_TEMPERATURE>
298

> <NMREDATA_FORMULA>
C32H32P2Rh

> <NMREDATA_SMILES>
c1ccc(cc1)P1(CCP([Rh]234561C1C5C3C4C2C61)(c1ccccc1)c1ccccc1)c1ccccc1

> <NMREDATA_ASSIGNMENT>
Rh1, -1014.00, 1

> <NMREDATA_1D_103Rh>
-1014.00, L=Rh1

$$$$
